<?xml version="1.0" encoding="UTF-8"?>

<!-- generated on 2025-10-22 11:26:08 by Eclipse SUMO netedit Version 1.24.0
-->

<routes xmlns:xsi="http://www.w3.org/2001/XMLSchema-instance" xsi:noNamespaceSchemaLocation="http://sumo.dlr.de/xsd/routes_file.xsd">
    <!-- VTypes -->
    <vType id="t_0"/>
    <vType id="t_1"/>
    <!-- Vehicles, persons and containers (sorted by depart) -->
    <trip id="t_0" depart="0.00" from="E0" to="E0">
        
        <stop parkingArea="pa_0" /> 
    </trip>

    <trip id="t_1" depart="0.00" from="E0" to="E0" >
        <stop parkingArea="pa_0" />
    </trip>
</routes>
