<?xml version="1.0" encoding="UTF-8"?>

<!-- generated on 2025-10-23 13:34:31 by Eclipse SUMO netedit Version 1.24.0
-->

<routes xmlns:xsi="http://www.w3.org/2001/XMLSchema-instance" xsi:noNamespaceSchemaLocation="http://sumo.dlr.de/xsd/routes_file.xsd">
    <!-- VTypes -->
    <vType id="t_0"/>
    <vType id="t_1"/>
    <!-- Routes -->
    <route id="r0" edges="E0"/>
    <!-- Vehicles, persons and containers (sorted by depart) -->
    <trip id="t_2" depart="0.00" from="E0" to="E0"/>
    <vehicle id="veh_0" type="t_0" depart="0.00" departLane="best" departPos="free" departSpeed="0.00" route="r0">
        <stop parkingArea="pa_0" triggered="person"/>
    </vehicle>
    <vehicle id="veh_1" type="t_1" depart="0.00" departLane="best" departPos="free" departSpeed="0.00" route="r0">
        <stop parkingArea="pa_0" triggered="person"/>
    </vehicle>
</routes>
