<?xml version="1.0" encoding="UTF-8"?>

<!-- generated on 2025-10-23 14:43:14 by Eclipse SUMO sumo Version 1.24.0
-->

<sumoConfiguration xmlns:xsi="http://www.w3.org/2001/XMLSchema-instance" xsi:noNamespaceSchemaLocation="http://sumo.dlr.de/xsd/sumoConfiguration.xsd">

    <input>
        <net-file value="parking.net.xml"/>
        <route-files value="parking.rou.xml"/>
        <additional-files value="parking.add.xml"/>
    </input>

</sumoConfiguration>
