<?xml version="1.0" encoding="UTF-8"?>

<!-- generated on 2025-10-23 13:34:31 by Eclipse SUMO netedit Version 1.24.0
-->

<routes xmlns:xsi="http://www.w3.org/2001/XMLSchema-instance" xsi:noNamespaceSchemaLocation="http://sumo.dlr.de/xsd/routes_file.xsd">
    <!-- VTypes -->
    <vType id="t_0" carFollowModel="CACC" tau="0.6" minGap="3.0"
           accel="1.5" decel="3.0" length="12" maxSpeed="33"/>
    <vType id="t_1" carFollowModel="CACC" tau="0.6" minGap="3.0"
           accel="1.5" decel="3.0" length="12" maxSpeed="33"/>
    <vType id="t_2" carFollowModel="CACC" tau="0.6" minGap="3.0"
           accel="1.5" decel="3.0" length="12" maxSpeed="33"/>

    <!-- Routes -->
    <route id="r0" edges="E0 E1"/>
    <route id="r1" edges="E2 E1"/>

    <!-- Vehicles, persons and containers (sorted by depart) -->  
    <vehicle id="veh_0" type="t_0" depart="0.00" departLane="best" departPos="free" departSpeed="0.00" route="r0">
        <stop parkingArea="pa_0" triggered="person"/>
        <stop parkingArea="pa_2" />
    </vehicle>

    <vehicle id="veh_1" type="t_1" depart="0.00" departLane="best" departPos="free" departSpeed="0.00" route="r0">
        <stop parkingArea="pa_0" triggered="person"/>
        <stop parkingArea="pa_2" />
    </vehicle>

     <vehicle id="veh_2" type="t_2" depart="0.00" departLane="best" departPos="free" departSpeed="0.00" route="r1">
        <stop parkingArea="pa_1" triggered="person"/>
        <stop parkingArea="pa_2"/>
    </vehicle>
    
</routes>
