<?xml version="1.0" encoding="UTF-8"?>

<!-- generated on 2025-10-22 13:54:54 by Eclipse SUMO netedit Version 1.24.0
-->

<additional xmlns:xsi="http://www.w3.org/2001/XMLSchema-instance" xsi:noNamespaceSchemaLocation="http://sumo.dlr.de/xsd/additional_file.xsd">
    <!-- StoppingPlaces -->
    <parkingArea id="pa_0" lane="E0_0" startPos="-58.97" endPos="-48.97">
        <space name="a1" x="14.43" y="11.54"/>
        <space name="a1" x="18.45" y="12.04"/>
        <space name="a1" x="22.63" y="13.38"/>
    </parkingArea>
</additional>
