<?xml version="1.0" encoding="UTF-8"?>
<routes xmlns:xsi="http://www.w3.org/2001/XMLSchema-instance"
        xsi:noNamespaceSchemaLocation="http://sumo.dlr.de/xsd/routes_file.xsd">

  <!-- vTypes -->
  <vType id="leadtruck" carFollowModel="Krauss"
         accel="1.5" decel="3.0" length="12" maxSpeed="27.8" color="yellow"/>
  <vType id="truckCACC" carFollowModel="CACC"
         tau="0.6" minGap="3.0" accel="1.5" decel="3.0"
         length="12" maxSpeed="27.8" color="grey"/>

  <!-- Routes -->
  <route id="r_0" edges="E0" color="yellow"/>
  <route id="r_1" edges="E0" color="yellow"/>
  <route id="r_2" edges="E0" color="yellow"/>

  <!-- 기존 3대 (departPos 유지) -->
  <vehicle id="t_0" type="leadtruck" depart="0.00" departPos="13.68" route="r_2"/>
  <vehicle id="t_1" type="leadtruck" depart="0.00" departPos="6.55"  route="r_1"/>
  <vehicle id="t_2" type="leadtruck" depart="0.00" departPos="0.67"  route="r_0"/>

  <!-- t_3: 중간 합류 (route 먼저, stop 나중) -->
  <vehicle id="t_3" type="leadtruck" depart="0.00" color="blue">
    <route edges="E0"/>
    <stop parkingArea="pa_2" triggered="true"/>
  </vehicle>
</routes>
