<?xml version="1.0" encoding="UTF-8"?>

<!-- generated on 2025-10-23 10:43:11 by Eclipse SUMO netedit Version 1.24.0
-->

<additional xmlns:xsi="http://www.w3.org/2001/XMLSchema-instance" xsi:noNamespaceSchemaLocation="http://sumo.dlr.de/xsd/additional_file.xsd">
    <!-- StoppingPlaces -->
    <parkingArea id="pa_0" lane="E0_0" startPos="0.00" endPos="5.74">
        <space x="-67.13" y="6.12"/>
        <space x="-64.18" y="6.12"/>
        <space x="-61.97" y="6.12"/>
    </parkingArea>
    <parkingArea id="pa_1" lane="E0_0" startPos="154.29" endPos="162.43">
        <space x="100.53" y="5.91"/>
        <space x="104.38" y="6.10"/>
        <space x="107.47" y="6.20"/>
        <space x="110.64" y="6.39"/>
        <space x="113.63" y="6.20"/>
    </parkingArea>
    <parkingArea id="pa_2" lane="E0_0" startPos="70.59" endPos="80.59">
        <space x="10.38" y="5.43"/>
        <space x="13.36" y="5.43"/>
        <space x="16.25" y="5.52"/>
    </parkingArea>
</additional>
