<?xml version="1.0" encoding="UTF-8"?>

<!-- generated on 2025-10-23 10:49:21 by Eclipse SUMO netedit Version 1.24.0
<neteditConfiguration xmlns:xsi="http://www.w3.org/2001/XMLSchema-instance" xsi:noNamespaceSchemaLocation="http://sumo.dlr.de/xsd/neteditConfiguration.xsd">

    <input>
        <sumocfg-file value="C:\Users\joshua\test_venv\parking\parking.sumocfg"/>
        <additional-files value="C:\Users\joshua\test_venv\parking\parking.add.xml"/>
        <route-files value="C:\Users\joshua\test_venv\parking\parking.rou.xml"/>
        <sumo-net-file value="C:\Users\joshua\test_venv\parking\parking.net.xml"/>
    </input>

    <output>
        <output-file value="C:\Users\joshua\test_venv\parking\parking.net.xml"/>
    </output>

    <processing>
        <geometry.min-radius.fix.railways value="false"/>
        <geometry.avoid-overlap value="false"/>
        <geometry.max-grade.fix value="false"/>
        <offset.disable-normalization value="true"/>
        <lefthand value="0"/>
    </processing>

    <junctions>
        <no-internal-links value="true"/>
        <no-turnarounds value="true"/>
        <junctions.corner-detail value="5"/>
        <junctions.limit-turn-speed value="5.50"/>
        <rectangular-lane-cut value="0"/>
    </junctions>

    <pedestrian>
        <walkingareas value="0"/>
    </pedestrian>

</neteditConfiguration>
-->

<net version="1.20" junctionCornerDetail="5" limitTurnSpeed="5.50" avoidOverlap="0" xmlns:xsi="http://www.w3.org/2001/XMLSchema-instance" xsi:noNamespaceSchemaLocation="http://sumo.dlr.de/xsd/net_file.xsd">

    <location netOffset="0.00,0.00" convBoundary="-61.94,15.73,100.49,15.73" origBoundary="-10000000000.00,-10000000000.00,10000000000.00,10000000000.00" projParameter="!"/>

    <edge id="E0" from="J0" to="J1" priority="-1">
        <lane id="E0_0" index="0" speed="13.89" length="162.43" shape="-61.94,14.13 100.49,14.13"/>
    </edge>

    <junction id="J0" type="dead_end" x="-61.94" y="15.73" incLanes="" intLanes="" shape="-61.94,15.73 -61.94,12.53"/>
    <junction id="J1" type="dead_end" x="100.49" y="15.73" incLanes="E0_0" intLanes="" shape="100.49,12.53 100.49,15.73"/>

</net>
