<?xml version="1.0" encoding="UTF-8"?>

<!-- generated on 2025-11-15 14:07:47.414353 by randomTrips.py v1_24_0+0000-b72eb3fabc8
<configuration>
    <net-file value="map/final.net.xml"/>
    <route-file value="map/First.rou.xml"/>
    <end value="2.0"/>
    <period value="0.2"/>
    <binomial value="5"/>
</configuration>
-->

<routes xmlns:xsi="http://www.w3.org/2001/XMLSchema-instance" xsi:noNamespaceSchemaLocation="http://sumo.dlr.de/xsd/routes_file.xsd">
    <trip id="0" depart="0.00" from="E0" to="E15"/>
    <trip id="1" depart="0.00" from="E2" to="E18"/>
    <trip id="2" depart="0.00" from="E0" to="E17"/>
    <trip id="3" depart="0.00" from="E14" to="E17"/>
    <trip id="4" depart="0.00" from="E0" to="E18"/>
    <trip id="5" depart="1.00" from="E14" to="E17"/>
    <trip id="6" depart="1.00" from="E0" to="E3"/>
    <trip id="7" depart="1.00" from="E14" to="E14"/>
    <trip id="8" depart="1.00" from="E14" to="E14"/>
    <trip id="9" depart="1.00" from="E3" to="E18"/>
</routes>
