<?xml version="1.0" encoding="UTF-8"?>

<net version="1.20" junctionCornerDetail="5" limitTurnSpeed="5.50" avoidOverlap="0" xmlns:xsi="http://www.w3.org/2001/XMLSchema-instance" xsi:noNamespaceSchemaLocation="http://sumo.dlr.de/xsd/net_file.xsd">

    <location netOffset="0.00,0.00" convBoundary="-1543.08,-2042.78,1507.14,-1138.75" origBoundary="-10000000000.00,-10000000000.00,10000000000.00,10000000000.00" projParameter="!"/>

    <edge id=":J1_0" function="internal">
        <lane id=":J1_0_0" index="0" speed="6.49" length="9.03" shape="-544.58,-1440.32 -544.28,-1437.86 -543.26,-1436.09 -541.52,-1435.02 -539.07,-1434.65"/>
        <lane id=":J1_0_1" index="1" speed="7.99" length="14.23" shape="-547.78,-1440.38 -547.30,-1436.50 -545.70,-1433.72 -542.96,-1432.04 -539.11,-1431.45"/>
    </edge>
    <edge id=":J1_2" function="internal">
        <lane id=":J1_2_0" index="0" speed="30.00" length="14.40" shape="-553.48,-1434.79 -539.07,-1434.65"/>
        <lane id=":J1_2_1" index="1" speed="30.00" length="14.40" shape="-553.51,-1431.59 -539.11,-1431.45"/>
    </edge>
    <edge id=":J11_0" function="internal">
        <lane id=":J11_0_0" index="0" speed="30.00" length="4.35" shape="384.36,-1425.79 385.65,-1425.80 386.53,-1425.86 387.40,-1426.00 388.67,-1426.22"/>
    </edge>
    <edge id=":J11_1" function="internal">
        <lane id=":J11_1_0" index="0" speed="30.00" length="4.64" shape="384.33,-1422.59 388.96,-1422.80"/>
    </edge>
    <edge id=":J24_0" function="internal">
        <lane id=":J24_0_0" index="0" speed="30.00" length="8.40" shape="608.46,-1423.29 610.92,-1423.80 612.46,-1424.90 613.99,-1426.01 616.45,-1426.52"/>
        <lane id=":J24_0_1" index="1" speed="30.00" length="8.40" shape="608.46,-1423.29 616.47,-1423.32"/>
    </edge>
    <edge id=":J25_0" function="internal">
        <lane id=":J25_0_0" index="0" speed="30.00" length="8.39" shape="349.45,-1334.30 349.95,-1331.85 351.05,-1330.32 352.16,-1328.79 352.69,-1326.34"/>
        <lane id=":J25_0_1" index="1" speed="30.00" length="8.39" shape="349.45,-1334.30 349.49,-1326.30"/>
    </edge>

    <edge id="E0" from="J0" to="J1" priority="-1">
        <lane id="E0_0" index="0" speed="30.00" length="989.61" shape="-1543.03,-1444.78 -553.48,-1434.79"/>
        <lane id="E0_1" index="1" speed="30.00" length="989.61" shape="-1543.06,-1441.58 -553.51,-1431.59"/>
    </edge>
    <edge id="E14" from="J11" to="J24" priority="-1">
        <lane id="E14_0" index="0" speed="30.00" length="219.51" shape="388.96,-1422.80 608.46,-1423.29"/>
    </edge>
    <edge id="E15" from="J11" to="J25" priority="-1" shape="367.78,-1421.15 408.47,-1427.86 445.58,-1436.98 479.97,-1446.75 508.83,-1457.07 535.44,-1467.93 558.46,-1481.14 577.86,-1496.18 595.81,-1518.49 605.38,-1542.82 609.25,-1566.52 608.71,-1590.93 607.68,-1612.18 603.44,-1635.11 597.92,-1654.90 587.55,-1676.80 575.91,-1697.40 559.83,-1714.72 543.86,-1725.25 523.44,-1736.68 498.41,-1742.11 473.50,-1743.32 447.35,-1739.40 425.44,-1730.31 408.81,-1718.63 395.73,-1703.52 384.92,-1688.59 373.43,-1669.81 364.44,-1650.56 357.97,-1625.96 352.78,-1602.91 349.38,-1573.15 348.38,-1544.23 348.41,-1522.54 348.13,-1362.92 347.90,-1347.79 347.84,-1330.29">
        <lane id="E15_0" index="0" speed="30.00" length="999.95" shape="388.67,-1426.22 408.15,-1429.43 445.17,-1438.53 479.48,-1448.27 508.26,-1458.56 534.74,-1469.37 557.57,-1482.47 576.73,-1497.33 594.41,-1519.30 603.83,-1543.25 607.65,-1566.63 607.11,-1590.87 606.09,-1611.99 601.88,-1634.75 596.42,-1654.34 586.13,-1676.06 574.61,-1696.45 558.79,-1713.49 543.03,-1723.88 522.87,-1735.17 498.20,-1740.52 473.58,-1741.71 447.78,-1737.85 426.22,-1728.90 409.89,-1717.43 396.99,-1702.53 386.25,-1687.70 374.84,-1669.05 365.95,-1650.01 359.52,-1625.58 354.36,-1602.64 350.98,-1573.03 349.98,-1544.20 350.01,-1522.54 349.73,-1362.91 349.50,-1347.78 349.45,-1334.30"/>
    </edge>
    <edge id="E17" from="J24" to="J31" priority="-1">
        <lane id="E17_0" index="0" speed="30.00" length="890.68" shape="616.45,-1426.52 1507.12,-1429.95"/>
        <lane id="E17_1" index="1" speed="30.00" length="890.68" shape="616.47,-1423.32 1507.13,-1426.75"/>
    </edge>
    <edge id="E18" from="J25" to="J32" priority="-1" shape="347.84,-1330.29 348.85,-1241.44 348.14,-1138.75">
        <lane id="E18_0" index="0" speed="30.00" length="187.60" shape="352.69,-1326.34 353.65,-1241.45 352.94,-1138.72"/>
        <lane id="E18_1" index="1" speed="30.00" length="187.60" shape="349.49,-1326.30 350.45,-1241.44 349.74,-1138.74"/>
    </edge>
    <edge id="E2" from="J9" to="J1" priority="-1">
        <lane id="E2_0" index="0" speed="30.00" length="602.48" shape="-533.23,-2042.69 -544.58,-1440.32"/>
        <lane id="E2_1" index="1" speed="30.00" length="602.48" shape="-536.43,-2042.75 -547.78,-1440.38"/>
    </edge>
    <edge id="E3" from="J1" to="J11" priority="-1">
        <lane id="E3_0" index="0" speed="30.00" length="923.47" shape="-539.07,-1434.65 384.36,-1425.79"/>
        <lane id="E3_1" index="1" speed="30.00" length="923.47" shape="-539.11,-1431.45 384.33,-1422.59"/>
    </edge>

    <junction id="J0" type="dead_end" x="-1543.08" y="-1439.98" incLanes="" intLanes="" shape="-1543.08,-1439.98 -1543.02,-1446.38"/>
    <junction id="J1" type="priority" x="-549.58" y="-1429.95" incLanes="E2_0 E2_1 E0_0 E0_1" intLanes=":J1_0_0 :J1_0_1 :J1_2_0 :J1_2_1" shape="-539.12,-1429.85 -539.06,-1436.25 -541.27,-1436.72 -542.04,-1437.28 -542.58,-1438.06 -542.90,-1439.06 -542.98,-1440.29 -549.38,-1440.41 -549.87,-1438.16 -550.44,-1437.37 -551.23,-1436.82 -552.23,-1436.49 -553.46,-1436.39 -553.52,-1429.99">
        <request index="0" response="0000" foes="1100" cont="0"/>
        <request index="1" response="0000" foes="1100" cont="0"/>
        <request index="2" response="0011" foes="0011" cont="0"/>
        <request index="3" response="0011" foes="0011" cont="0"/>
    </junction>
    <junction id="J11" type="priority" x="367.78" y="-1421.15" incLanes="E3_0 E3_1" intLanes=":J11_0_0 :J11_1_0" shape="388.96,-1421.20 388.95,-1424.40 388.93,-1424.64 388.41,-1427.80 386.93,-1427.54 386.40,-1427.46 385.88,-1427.41 385.24,-1427.39 384.37,-1427.39 384.31,-1420.99">
        <request index="0" response="00" foes="00" cont="0"/>
        <request index="1" response="00" foes="00" cont="0"/>
    </junction>
    <junction id="J24" type="priority" x="612.47" y="-1421.70" incLanes="E14_0" intLanes=":J24_0_0 :J24_0_1" shape="616.47,-1421.72 616.45,-1428.12 613.42,-1427.27 611.49,-1425.73 610.25,-1425.13 608.46,-1424.89 608.47,-1421.69">
        <request index="0" response="00" foes="00" cont="0"/>
        <request index="1" response="00" foes="00" cont="0"/>
    </junction>
    <junction id="J25" type="priority" x="347.84" y="-1330.29" incLanes="E15_0" intLanes=":J25_0_0 :J25_0_1" shape="347.89,-1326.28 354.29,-1326.36 353.42,-1329.37 352.65,-1330.33 351.87,-1331.29 351.28,-1332.52 351.05,-1334.30 347.85,-1334.31">
        <request index="0" response="00" foes="00" cont="0"/>
        <request index="1" response="00" foes="00" cont="0"/>
    </junction>
    <junction id="J31" type="dead_end" x="1507.14" y="-1425.15" incLanes="E17_0 E17_1" intLanes="" shape="1507.12,-1431.55 1507.14,-1425.15"/>
    <junction id="J32" type="dead_end" x="348.14" y="-1138.75" incLanes="E18_0 E18_1" intLanes="" shape="354.54,-1138.71 348.14,-1138.75"/>
    <junction id="J9" type="dead_end" x="-538.03" y="-2042.78" incLanes="" intLanes="" shape="-538.03,-2042.78 -531.63,-2042.66"/>

    <connection from="E0" to="E3" fromLane="0" toLane="0" via=":J1_2_0" dir="s" state="M"/>
    <connection from="E0" to="E3" fromLane="1" toLane="1" via=":J1_2_1" dir="s" state="M"/>
    <connection from="E14" to="E17" fromLane="0" toLane="0" via=":J24_0_0" dir="s" state="M"/>
    <connection from="E14" to="E17" fromLane="0" toLane="1" via=":J24_0_1" dir="s" state="M"/>
    <connection from="E15" to="E18" fromLane="0" toLane="0" via=":J25_0_0" dir="s" state="M"/> <!-- E15코너도로인데 그대로 주행함. 근데 곡선이지만 완만해서 감속이 필요없다고 판정되서 그런거라고 함. -->
    <connection from="E15" to="E18" fromLane="0" toLane="1" via=":J25_0_1" dir="s" state="M"/>
    <connection from="E2" to="E3" fromLane="0" toLane="0" via=":J1_0_0" dir="r" state="m"/> <!-- m은 보조도로 M은 주도로 -->
    <connection from="E2" to="E3" fromLane="1" toLane="1" via=":J1_0_1" dir="r" state="m"/>
    <connection from="E3" to="E15" fromLane="0" toLane="0" via=":J11_0_0" dir="R" state="M"/>
    <connection from="E3" to="E14" fromLane="1" toLane="0" via=":J11_1_0" dir="s" state="M"/>

    <connection from=":J1_0" to="E3" fromLane="0" toLane="0" dir="r" state="M"/>
    <connection from=":J1_0" to="E3" fromLane="1" toLane="1" dir="r" state="M"/>
    <connection from=":J1_2" to="E3" fromLane="0" toLane="0" dir="s" state="M"/>
    <connection from=":J1_2" to="E3" fromLane="1" toLane="1" dir="s" state="M"/>
    <connection from=":J11_0" to="E15" fromLane="0" toLane="0" dir="R" state="M"/>
    <connection from=":J11_1" to="E14" fromLane="0" toLane="0" dir="s" state="M"/>
    <connection from=":J24_0" to="E17" fromLane="0" toLane="0" dir="s" state="M"/>
    <connection from=":J24_0" to="E17" fromLane="1" toLane="1" dir="s" state="M"/>
    <connection from=":J25_0" to="E18" fromLane="0" toLane="0" dir="s" state="M"/>
    <connection from=":J25_0" to="E18" fromLane="1" toLane="1" dir="s" state="M"/>

</net>
