<?xml version="1.0" encoding="UTF-8"?>

<!-- generated on 2025-10-01 11:50:09 by Eclipse SUMO netedit Version 1.24.0
-->

<routes xmlns:xsi="http://www.w3.org/2001/XMLSchema-instance" xsi:noNamespaceSchemaLocation="http://sumo.dlr.de/xsd/routes_file.xsd">
    <!-- 차량 타입 정의 maxspeed는 m/s임.-->
    <!-- lcMode="0" : 모든 차선 변경 의도/전략 비활성화 -> 추월 원천 차단 -->
    <vType id="leadtruck" carFollowModel="Krauss"
           accel="1.5" decel="3.0" length="12" maxSpeed="18"
           sigma="0.5" color="yellow"/>

    <vType id="truckCACC" carFollowModel="CACC" tau="0.6" minGap="3.0"
           accel="1.5" decel="3.0" length="12" maxSpeed="18" 
           sigma="0.0" color="grey"/>

    <!-- Routes -->
    <route id="r_0" edges="E0 E3 E15 E18"/>
    <route id="r_1" edges="E0 E3 E14 E17"/>

    <!-- Vehicles: 같은 차선에서 출발하도록 departLane 고정, departSpeed="max" 초기 가속이 답답하면 유용(원하면 빼도 됨).-->
    <vehicle id="Leader"   type="leadtruck" route="r_0"
             depart="0.00" departLane="0" color="red">
             
        <stop parkingArea="pa_2" /> </vehicle>

    <vehicle id="Follower1" type="truckCACC" route="r_0"
             depart="0.00" departLane="0" color="orange">
             
        <stop parkingArea="pa_2" /></vehicle>

    <vehicle id="Follower2" type="truckCACC" route="r_1"
             depart="0.00" departLane="0" color="yellow" >
             
        </vehicle>
             
    <vehicle id="Follower3" type="truckCACC" route="r_0"
             depart="0.00" departLane="0" color="green">
             
        <stop parkingArea="pa_2" /> </vehicle>


</routes>
