<?xml version="1.0" encoding="UTF-8"?>

<!-- generated on 2025-10-15 10:43:01 by Eclipse SUMO polyconvert Version 1.24.0
<polyconvertConfiguration xmlns:xsi="http://www.w3.org/2001/XMLSchema-instance" xsi:noNamespaceSchemaLocation="http://sumo.dlr.de/xsd/polyconvertConfiguration.xsd">

    <input>
        <net-file value="osm.net.xml.gz"/>
        <osm-files value="osm_bbox.osm.xml.gz"/>
        <osm.keep-full-type value="true"/>
        <osm.merge-relations value="1"/>
        <type-file value="${SUMO_HOME}\data\typemap\osmPolyconvert.typ.xml"/>
    </input>

    <output>
        <output-file value="osm.poly.xml.gz"/>
    </output>

    <report>
        <verbose value="true"/>
    </report>

</polyconvertConfiguration>
-->

<additional xmlns:xsi="http://www.w3.org/2001/XMLSchema-instance" xsi:noNamespaceSchemaLocation="http://sumo.dlr.de/xsd/additional_file.xsd">
    <location netOffset="-333022.58,-4074728.37" convBoundary="-270.38,-180.07,10500.55,16541.40" origBoundary="127.124833,36.803611,127.242687,36.952873" projParameter="+proj=utm +zone=52 +ellps=WGS84 +datum=WGS84 +units=m +no_defs"/>

    <poly id="1005892277" type="amenity.parking" color="184,184,179" fill="1" layer="-1.00" shape="1409.356791,167.873006 1409.212416,132.392947 1414.886509,128.142943 1431.364248,136.535636 1429.906836,171.802609 1411.845021,170.077757 1409.356791,167.873006"/>
    <poly id="1006807047" type="amenity.parking" color="184,184,179" fill="1" layer="-1.00" shape="4948.776794,5672.758598 4934.433615,5681.577571 4926.545261,5685.112818 4915.320310,5695.626055 4882.390662,5688.539440 4843.652563,5672.440473 4814.582460,5604.371146 4805.357156,5585.013234 4798.956460,5587.987522 4793.746450,5578.086880 4792.311741,5574.407259 4773.402483,5537.376120 4770.624594,5529.204937 4779.851720,5525.244492 4793.695991,5515.979727 4807.655537,5509.487455 4824.885790,5504.730893 4843.527170,5496.795474 4857.377132,5484.545172 4899.646016,5572.218838 4931.752362,5638.177375 4948.776794,5672.758598"/>
    <poly id="1014035271" type="natural.grassland" color="140,196,107" fill="1" layer="-4.00" shape="1933.613003,1502.982797 1952.621941,1530.739115 1946.202415,1534.703572 1932.937296,1539.521989 1921.225241,1536.063957 1918.995070,1529.647644 1917.860854,1526.373265 1920.362333,1518.688863 1926.236962,1507.320947 1928.892710,1505.760093 1933.613003,1502.982797"/>
    <poly id="1020572821" type="landuse.residential" color="235,235,227" fill="1" layer="-3.00" shape="-225.346601,4001.167034 -223.448087,4049.254967"/>
    <poly id="1021628453" type="building.yes" color="255,230,230" fill="1" layer="-1.00" shape="2556.464079,5015.107653 2572.668309,5017.724852 2575.452189,5000.678828 2559.239011,4998.061796 2556.464079,5015.107653"/>
    <poly id="1021628467" type="building.yes" color="255,230,230" fill="1" layer="-1.00" shape="2635.755285,5134.054428 2643.080853,5122.170503 2660.772033,5132.983371 2653.446452,5144.867280 2635.755285,5134.054428"/>
    <poly id="1021628468" type="building.yes" color="255,230,230" fill="1" layer="-1.00" shape="2641.662104,5095.338781 2648.455441,5083.143271 2666.604271,5093.170406 2659.819834,5105.365729 2641.662104,5095.338781"/>
    <poly id="1021628469" type="building.yes" color="255,230,230" fill="1" layer="-1.00" shape="2611.413061,5149.274613 2618.569249,5137.860085 2634.413318,5147.709662 2627.266035,5159.124005 2611.413061,5149.274613"/>
    <poly id="1021628470" type="building.yes" color="255,230,230" fill="1" layer="-1.00" shape="2822.459822,5173.782512 2841.079852,5165.243736 2817.753417,5114.727790 2799.115247,5123.255862 2822.459822,5173.782512"/>
    <poly id="1021628471" type="building.yes" color="255,230,230" fill="1" layer="-1.00" shape="2918.550567,5609.810994 2922.003105,5601.986404 2940.343853,5610.012572 2936.891088,5617.826060 2918.550567,5609.810994"/>
    <poly id="1021628472" type="building.yes" color="255,230,230" fill="1" layer="-1.00" shape="2930.382774,5575.842653 2933.835553,5568.029164 2952.176145,5576.044266 2948.723568,5583.868842 2930.382774,5575.842653"/>
    <poly id="1021628473" type="building.yes" color="255,230,230" fill="1" layer="-1.00" shape="2937.935612,5557.239827 2941.388406,5549.426342 2959.729243,5557.452555 2956.276436,5565.266033 2937.935612,5557.239827"/>
    <poly id="1021628474" type="building.yes" color="255,230,230" fill="1" layer="-1.00" shape="2905.675340,5541.524073 2910.389486,5532.054743 2933.621865,5543.516052 2928.907488,5552.974274 2905.675340,5541.524073"/>
    <poly id="1021628475" type="building.yes" color="255,230,230" fill="1" layer="-1.00" shape="2894.068227,5557.552458 2898.782350,5548.083120 2922.014705,5559.544397 2917.300564,5569.013722 2894.068227,5557.552458"/>
    <poly id="1021628476" type="building.yes" color="255,230,230" fill="1" layer="-1.00" shape="2929.241166,5527.706995 2933.949361,5517.927028 2969.893814,5535.059154 2965.194292,5544.827833 2929.241166,5527.706995"/>
    <poly id="1021628477" type="building.yes" color="255,230,230" fill="1" layer="-1.00" shape="2925.141435,5595.444232 2928.593986,5587.619645 2946.925841,5595.646000 2943.481980,5603.459313 2925.141435,5595.444232"/>
    <poly id="1021628478" type="building.yes" color="255,230,230" fill="1" layer="-1.00" shape="2908.441813,5625.832687 2911.894335,5618.008092 2930.226144,5626.034411 2926.782312,5633.847731 2908.441813,5625.832687"/>
    <poly id="1021628479" type="building.yes" color="255,230,230" fill="1" layer="-1.00" shape="2892.923791,5642.091839 2896.376505,5634.278332 2914.716999,5642.293350 2911.264486,5650.117944 2892.923791,5642.091839"/>
    <poly id="1021628480" type="building.yes" color="255,230,230" fill="1" layer="-1.00" shape="2852.221003,5605.284827 2858.950846,5599.983046 2871.373490,5615.625948 2864.652568,5620.927548 2852.221003,5605.284827"/>
    <poly id="1021628481" type="building.yes" color="255,230,230" fill="1" layer="-1.00" shape="2866.375832,5626.576912 2873.105665,5621.275142 2885.537169,5636.917891 2878.807342,5642.219652 2866.375832,5626.576912"/>
    <poly id="1021628482" type="building.yes" color="255,230,230" fill="1" layer="-1.00" shape="2865.290553,5593.412430 2871.869700,5588.157961 2883.264679,5602.311253 2876.685537,5607.565714 2865.290553,5593.412430"/>
    <poly id="1021628483" type="building.yes" color="255,230,230" fill="1" layer="-1.00" shape="2880.444114,5611.455535 2888.874191,5605.055521 2896.843221,5615.456879 2888.413149,5621.856885 2880.444114,5611.455535"/>
    <poly id="1021628484" type="building.yes" color="255,230,230" fill="1" layer="-1.00" shape="2880.604676,5579.066154 2884.590385,5569.288982 2896.761665,5574.204231 2892.775944,5583.981397 2880.604676,5579.066154"/>
    <poly id="1021628485" type="building.yes" color="255,230,230" fill="1" layer="-1.00" shape="2993.871797,5524.575056 2994.735094,5520.773741 2999.948507,5521.938586 3002.512302,5510.568443 2988.081243,5507.339191 2984.654173,5522.510654 2993.871797,5524.575056"/>
    <poly id="1021628486" type="building.yes" color="255,230,230" fill="1" layer="-1.00" shape="2992.247870,5551.398807 2993.110948,5547.586398 2998.324346,5548.751240 3000.888341,5537.392191 2986.457326,5534.162943 2983.030274,5549.334408 2992.247870,5551.398807"/>
    <poly id="1021628487" type="building.yes" color="255,230,230" fill="1" layer="-1.00" shape="3021.257321,5525.224078 3022.120416,5521.411672 3027.333824,5522.576533 3029.897868,5511.217495 3015.466823,5507.988196 3012.039706,5523.159646 3021.257321,5525.224078"/>
    <poly id="1029002978" type="building.yes" color="255,230,230" fill="1" layer="-1.00" shape="2185.202922,3181.301781 2182.919771,3167.505737 2206.025166,3163.718125 2207.187242,3170.754487 2202.962810,3171.446619 2203.417993,3174.223615 2197.512709,3175.192430 2198.169651,3179.175293 2185.202922,3181.301781"/>
    <poly id="1029002979" type="building.yes" color="255,230,230" fill="1" layer="-1.00" shape="2203.739272,3202.830105 2203.438980,3190.993494 2226.641992,3190.411599 2226.942036,3202.237115 2203.739272,3202.830105"/>
    <poly id="1029002980" type="building.roof" color="255,230,230" fill="1" layer="-1.00" shape="2196.678537,3139.903284 2197.990330,3127.924508 2183.846608,3126.400054 2182.534619,3138.367738 2196.678537,3139.903284"/>
    <poly id="1029002981" type="building.yes" color="255,230,230" fill="1" layer="-1.00" shape="2210.584040,3140.644350 2217.834898,3141.436430 2219.187666,3129.268187 2199.052939,3127.049349 2198.232438,3134.445919 2211.107152,3135.861751 2210.584040,3140.644350"/>
    <poly id="1029002982" type="building.yes" color="255,230,230" fill="1" layer="-1.00" shape="2182.192750,3144.678469 2195.197890,3146.380322 2192.825178,3164.395168 2179.820280,3162.704414 2182.192750,3144.678469"/>
    <poly id="1029002983" type="building.yes" color="255,230,230" fill="1" layer="-1.00" shape="2185.547862,3115.645709 2195.153429,3116.403327 2196.532756,3099.151316 2193.003098,3098.864419 2186.343825,3105.597000 2185.547862,3115.645709"/>
    <poly id="1029002984" type="building.yes" color="255,230,230" fill="1" layer="-1.00" shape="2197.462239,3108.922479 2206.975073,3109.959375 2208.022374,3100.449649 2214.897833,3101.204594 2215.521016,3095.598749 2198.669138,3097.977921 2197.462239,3108.922479"/>
    <poly id="1029002985" type="building.yes" color="255,230,230" fill="1" layer="-1.00" shape="2224.198930,3113.899339 2232.708168,3114.711495 2234.052966,3100.745405 2225.543715,3099.933247 2224.198930,3113.899339"/>
    <poly id="1029002986" type="building.yes" color="255,230,230" fill="1" layer="-1.00" shape="2216.254824,3074.951897 2215.494295,3067.918868 2232.579923,3066.090153 2233.340439,3073.123183 2216.254824,3074.951897"/>
    <poly id="1029002987" type="building.yes" color="255,230,230" fill="1" layer="-1.00" shape="2198.649302,3075.270165 2196.307146,3076.414242 2191.962142,3072.258535 2192.249430,3062.663617 2201.426968,3063.429524 2198.649302,3075.270165"/>
    <poly id="1029002988" type="building.yes" color="255,230,230" fill="1" layer="-1.00" shape="2073.998062,3085.184576 2107.287889,3077.015351 2099.738269,3046.495447 2066.457031,3054.653430 2073.998062,3085.184576"/>
    <poly id="1029002989" type="building.yes" color="255,230,230" fill="1" layer="-1.00" shape="2066.474293,3050.013795 2080.860668,3046.550002 2076.168124,3027.206811 2061.772799,3030.670783 2066.474293,3050.013795"/>
    <poly id="1029002990" type="building.yes" color="255,230,230" fill="1" layer="-1.00" shape="2080.010768,3018.308893 2093.631593,3015.392684 2089.397894,2995.785335 2076.649379,3002.746830 2080.010768,3018.308893"/>
    <poly id="1029002991" type="building.yes" color="255,230,230" fill="1" layer="-1.00" shape="2085.104166,3046.379087 2100.991871,3043.041658 2098.055147,3029.136191 2082.167202,3032.462531 2085.104166,3046.379087"/>
    <poly id="1029002992" type="building.yes" color="255,230,230" fill="1" layer="-1.00" shape="2060.401814,3023.449799 2073.960940,3021.034198 2071.570016,3007.673115 2058.821533,3014.634637 2060.401814,3023.449799"/>
    <poly id="1029002993" type="building.yes" color="255,230,230" fill="1" layer="-1.00" shape="1995.564843,3088.334483 1983.374555,3091.400736 1974.190713,3055.296565 1986.381050,3052.230301 1995.564843,3088.334483"/>
    <poly id="1029002994" type="building.yes" color="255,230,230" fill="1" layer="-1.00" shape="2030.254781,3081.980244 2041.726666,3079.593895 2032.626206,3036.262737 2021.163183,3038.648923 2030.254781,3081.980244"/>
    <poly id="1029002995" type="building.yes" color="255,230,230" fill="1" layer="-1.00" shape="2020.703694,3074.362689 2009.004008,3076.964354 2002.324818,3047.182383 1992.384090,3049.394849 2001.095160,3088.271793 2022.744436,3083.457500 2020.703694,3074.362689"/>
    <poly id="1029002996" type="building.yes" color="255,230,230" fill="1" layer="-1.00" shape="1725.433793,3127.653965 1741.894097,3125.791989 1738.078025,3092.336430 1721.617656,3094.198412 1725.433793,3127.653965"/>
    <poly id="1029002997" type="building.yes" color="255,230,230" fill="1" layer="-1.00" shape="1884.697035,3087.607401 1883.824572,3078.034926 1828.375006,3083.082907 1829.247316,3092.644284 1884.697035,3087.607401"/>
    <poly id="1029002998" type="building.yes" color="255,230,230" fill="1" layer="-1.00" shape="1635.656300,3233.069967 1624.226897,3234.412764 1615.168229,3229.194543 1611.834004,3200.824027 1621.180643,3199.732516 1622.036659,3207.063335 1625.695218,3206.637167 1626.336043,3212.074260 1629.629594,3211.688475 1630.953801,3222.916999 1634.416365,3222.505737 1635.656300,3233.069967"/>
    <poly id="1029299014" type="amenity.cafe" color="237,199,199" fill="1" layer="-1.00" shape="1667.109142,3213.036665 1666.183480,3200.734917 1684.159450,3199.287366 1684.731559,3207.622591 1667.109142,3213.036665"/>
    <poly id="1029299014#1" type="building.yes" color="255,230,230" fill="1" layer="-1.00" shape="1667.109142,3213.036665 1666.183480,3200.734917 1684.159450,3199.287366 1684.731559,3207.622591 1667.109142,3213.036665"/>
    <poly id="1029299015" type="building.yes" color="255,230,230" fill="1" layer="-1.00" shape="2147.243076,3079.028098 2155.411955,3079.769072 2160.453459,3030.914520 2144.099605,3029.066615 2147.243076,3079.028098"/>
    <poly id="1029299016" type="building.yes" color="255,230,230" fill="1" layer="-1.00" shape="2185.836706,3277.260855 2185.596573,3264.845941 2197.752200,3264.610831 2197.992316,3277.025746 2185.836706,3277.260855"/>
    <poly id="1029299017" type="building.yes" color="255,230,230" fill="1" layer="-1.00" shape="2184.448259,3264.979140 2184.790892,3234.262129 2173.975449,3234.138366 2173.641988,3264.866302 2184.448259,3264.979140"/>
    <poly id="1029299018" type="building.yes" color="255,230,230" fill="1" layer="-1.00" shape="2031.821701,3555.980235 2054.761767,3556.612680 2056.010284,3512.348630 2033.061181,3511.716350 2031.821701,3555.980235"/>
    <poly id="1029299019" type="building.yes" color="255,230,230" fill="1" layer="-1.00" shape="2029.226980,3478.183370 2045.411122,3478.680241 2045.817604,3465.575770 2029.633436,3465.078897 2029.226980,3478.183370"/>
    <poly id="1029299020" type="building.yes" color="255,230,230" fill="1" layer="-1.00" shape="1988.699292,3477.381034 2008.275103,3477.956435 2008.646820,3465.363177 1989.070980,3464.787775 1988.699292,3477.381034"/>
    <poly id="1029299021" type="building.yes" color="255,230,230" fill="1" layer="-1.00" shape="2358.352441,3280.884677 2382.728412,3259.292722 2372.305666,3247.629482 2363.507879,3255.424331 2359.905838,3251.387376 2353.476344,3257.083200 2349.655328,3252.795209 2340.497919,3260.907798 2358.352441,3280.884677"/>
    <poly id="1029299022" type="building.yes" color="255,230,230" fill="1" layer="-1.00" shape="2353.046985,3243.173614 2358.350198,3248.909108 2366.669614,3241.289978 2353.338512,3226.863860 2339.303401,3239.721092 2347.331296,3248.411699 2353.046985,3243.173614"/>
    <poly id="1029299023" type="building.yes" color="255,230,230" fill="1" layer="-1.00" shape="2394.285109,3240.523391 2422.147109,3204.480195 2438.836660,3217.265529 2456.184125,3194.821753 2461.925552,3199.228091 2466.852085,3192.851054 2531.301144,3242.250576 2481.155827,3307.103196 2394.285109,3240.523391"/>
    <poly id="1029299025" type="building.yes" color="255,230,230" fill="1" layer="-1.00" shape="1653.408431,3278.941041 1650.370318,3270.420593 1658.740746,3258.104939 1669.931417,3255.035400 1674.521304,3257.088421 1664.015329,3283.030473 1653.408431,3278.941041"/>
    <poly id="1029299026" type="building.yes" color="255,230,230" fill="1" layer="-1.00" shape="1580.313351,3300.082403 1592.772179,3299.840541 1592.392481,3280.280650 1585.574661,3274.219846 1579.822357,3274.331516 1580.313351,3300.082403"/>
    <poly id="1029299027" type="building.yes" color="255,230,230" fill="1" layer="-1.00" shape="1372.268860,3264.245631 1410.307978,3260.420839 1405.472044,3212.656552 1367.432713,3216.481358 1372.268860,3264.245631"/>
    <poly id="1029299028" type="building.yes" color="255,230,230" fill="1" layer="-1.00" shape="1328.175989,3261.395792 1354.458880,3258.620649 1348.656480,3203.838488 1322.364286,3206.602722 1328.175989,3261.395792"/>
    <poly id="1029299029" type="building.yes" color="255,230,230" fill="1" layer="-1.00" shape="1252.797648,3200.907827 1227.496479,3203.708572 1224.058015,3172.798525 1249.368410,3170.008695 1252.797648,3200.907827"/>
    <poly id="1029299030" type="building.yes" color="255,230,230" fill="1" layer="-1.00" shape="1226.970257,3271.588390 1224.083198,3246.550015 1256.281281,3242.860374 1258.513088,3262.195584 1254.325959,3268.470197 1226.970257,3271.588390"/>
    <poly id="1029299031" type="building.yes" color="255,230,230" fill="1" layer="-1.00" shape="1144.937124,3281.309104 1142.512930,3256.228437 1180.012336,3252.635098 1182.427502,3277.715945 1144.937124,3281.309104"/>
    <poly id="1029299032" type="building.yes" color="255,230,230" fill="1" layer="-1.00" shape="977.878275,3295.039816 974.170435,3268.208359 998.897842,3264.818686 1002.596686,3291.650325 977.878275,3295.039816"/>
    <poly id="1029299033" type="building.yes" color="255,230,230" fill="1" layer="-1.00" shape="967.617679,3239.145965 981.465625,3237.843952 978.570451,3207.389524 964.722672,3208.702635 967.617679,3239.145965"/>
    <poly id="1029299034" type="building.yes" color="255,230,230" fill="1" layer="-1.00" shape="1195.026821,3214.540172 1193.770443,3204.076186 1217.999455,3201.196310 1219.246886,3211.660472 1195.026821,3214.540172"/>
    <poly id="1029299035" type="building.yes" color="255,230,230" fill="1" layer="-1.00" shape="1285.409605,3213.902947 1282.109732,3182.768216 1316.272710,3179.173790 1319.563539,3210.308703 1285.409605,3213.902947"/>
    <poly id="1029299036" type="building.yes" color="255,230,230" fill="1" layer="-1.00" shape="1317.571739,3171.190648 1316.022507,3158.046423 1342.317947,3154.982446 1343.858220,3168.126848 1317.571739,3171.190648"/>
    <poly id="1029299037" type="building.yes" color="255,230,230" fill="1" layer="-1.00" shape="1454.114044,3252.643972 1451.632051,3228.674276 1508.519398,3222.830037 1510.474895,3241.748892 1506.184386,3247.303954 1454.114044,3252.643972"/>
    <poly id="1029299038" type="building.yes" color="255,230,230" fill="1" layer="-1.00" shape="1451.823354,3255.052532 1423.266774,3257.438699 1419.218827,3209.359427 1447.775569,3206.973252 1451.823354,3255.052532"/>
    <poly id="10387174" type="natural.wood" color="140,196,107" fill="1" layer="-4.00" shape="4036.860716,-84.792986 4034.936320,-83.213514 4015.156011,-66.997878 4006.056238,-32.240721 4003.700811,-35.003663 3998.606760,-40.966166 3986.929236,-37.890669 3975.119971,-21.161338 3993.630517,7.341316 3994.576242,18.066704 3985.389673,37.997802 3957.909001,58.955589 3926.353609,58.637622 3867.013413,49.361784 3845.777503,59.434851 3841.470254,61.481696 3872.201248,151.691797 3880.317288,140.204883 3902.011879,163.463394 3901.111702,170.528234 3934.224190,168.285831 3940.793885,179.547424 3973.356269,181.211304 3979.742042,183.320076 3975.014704,184.398206 3908.662424,188.285939 3874.707548,202.009439 3930.667358,306.675999 3937.094397,296.009428 3950.895506,215.435940 4011.906657,181.917386 4036.970663,190.972193 4050.707460,208.345452 4062.307399,213.839637 4064.589613,232.863462 4072.280385,244.891731 4200.659266,159.689185 4218.658330,207.746679 4267.637041,226.933841 4250.616158,272.219043 4266.806775,267.614960 4280.961227,281.651011 4282.724787,298.775805 4291.415766,302.905164 4296.424714,314.252269 4315.124263,315.793432 4335.778663,319.694652 4344.460319,322.869761 4366.859924,317.670218 4370.787009,322.833874 4362.432469,336.344792 4361.741497,350.186820 4361.713971,374.016035 4358.123081,386.481645 4344.950646,398.652742 4329.859980,410.849350 4295.097272,420.568908 4280.979514,433.235387 4277.361465,444.269838 4281.888802,456.103362 4288.752203,464.551641 4301.278895,468.596725 4318.578414,472.084646 4330.050637,470.911345 4343.304819,463.033815 4366.840574,442.085869 4385.122040,421.715413 4398.667305,403.821493 4417.657819,395.357489 4437.211913,391.644084 4442.839182,385.343814 4455.921063,368.413306 4498.102451,346.155950 4517.202034,343.405875 4515.010185,379.196181 4494.827871,425.351282 4464.036308,492.662769 4465.299775,508.853735 4468.099118,530.242869 4483.261915,547.123441 4483.088847,563.330684 4467.434783,570.776496 4459.134880,587.615867 4452.389327,610.152497 4455.079786,625.827929 4468.115545,631.783597 4481.505740,631.051176 4479.478154,650.157201 4483.204747,669.630810 4468.577948,680.863874 4463.596263,695.742149 4471.931933,706.071457 4483.994632,711.080110 4497.002971,715.604620 4518.928793,710.414451 4537.418804,701.005736 4541.854615,707.591487 4538.600334,712.903115 4527.827863,725.494371 4512.773966,739.132796 4502.919946,749.808728 4511.700883,758.220627 4526.090853,759.855414 4559.761002,768.270444 4580.377669,769.786715 4616.364758,799.123068 4651.863164,777.959200 4699.034729,829.491008 4729.068841,822.715336 4743.836715,806.230409 4753.263688,798.426325 4762.463990,778.706691 4778.690151,776.011818 4796.661030,789.976048 4817.467893,801.500183 4839.056857,803.941960 4849.409703,819.482876 4873.134186,833.803996 4884.531934,854.086371 4887.185272,867.853650 4905.784111,864.170527 4929.218507,862.770635 4947.152331,874.338575 4974.576625,881.442177 5003.774162,881.364703 5024.949683,879.908097 5024.129112,870.534301 5022.219232,862.069080 5017.061432,850.335985 4938.393780,727.138261 4903.431112,677.936888 4898.177703,669.168988 4894.341993,659.397469 4892.608681,650.840126 4891.946871,642.784048 4891.810424,635.605870 4892.502382,629.754871 4894.588564,620.725378 4897.027878,612.432777 4902.120293,602.868907 4908.218360,595.505641 4914.446052,589.327462 4923.639937,581.916469 4932.250493,578.090309 4939.377652,575.568681 4946.812145,574.661609 4955.188049,573.514686 4964.787051,573.332304 4973.718819,576.547670 4986.705913,580.429608 4998.320353,582.051337 5010.095365,583.670032 5017.950546,583.298861 5026.129063,581.156886 5035.664352,578.090169 5045.237238,572.303603 5053.776986,566.625455 5059.432242,559.903331 5065.907071,549.813887 5069.732303,538.831379 5072.251556,528.628371 5073.381953,516.720360 5072.614778,503.105904 5065.646433,483.915632 5055.765287,463.604227 5053.537484,449.207313 5052.329682,438.708820 5053.082590,424.310801 5058.325327,407.607820 5066.889458,388.633170 5077.579664,372.115341 5082.379961,353.256564 5083.225324,337.613759 5082.358035,327.186491 5078.601140,312.629927 5073.499524,296.345324 5071.508336,287.360008 5071.257473,274.146400 5072.971994,258.686869 5076.323463,245.304987 5084.179810,231.815390 5101.305547,213.921306 5107.221862,206.361886 5112.458155,196.828738 5115.117194,185.047111 5116.039413,175.329481 5115.038718,158.811645 5113.478841,142.925941 5115.333864,130.160707 5118.953904,119.637176 5125.272816,104.600815 5134.622879,93.624497 5151.153399,78.205709 5157.844038,68.645002 5166.188154,51.683502 5176.073779,31.296615 5183.985853,20.724991 5195.063253,8.583931 5212.943027,-3.941401 5227.003643,-12.199018 5236.473067,-23.954369 5253.637409,-53.036145"/>
    <poly id="10387175" type="landuse.forest" color="140,196,107" fill="1" layer="-3.00" shape="3678.815143,361.194633 3702.491585,384.947429 3713.787583,387.616807 3745.821993,356.604391 3776.896757,376.630914 3813.360467,393.790872 3822.261737,409.835673 3825.654930,429.992468 3830.868813,439.426445 3830.687839,455.156675 3824.216434,467.688762 3788.097110,506.747892 3778.225402,516.470545 3767.362216,523.348738 3747.585820,528.011349 3734.772799,522.074680 3717.682299,517.396378 3710.626969,510.605903 3689.304606,497.917768 3675.994875,489.815359 3673.935969,482.962527 3673.849283,478.435939 3669.935422,473.982643 3659.289036,467.016808 3651.307325,463.118670 3644.357947,463.262872 3634.908792,469.881079 3632.822759,473.261731 3590.800804,466.441992 3563.155470,460.057257 3530.231871,440.899334 3502.326512,421.423356 3498.057446,411.016963 3495.715146,400.562535 3489.611477,357.305991 3474.928958,302.760110 3442.444235,219.499315 3450.292309,203.844000 3424.162218,176.931389 3412.499206,180.739933 3401.708219,179.759344 3388.686327,187.633898 3375.668911,195.275316 3366.850307,196.620950 3358.391128,192.976397 3352.995066,186.176555 3351.180533,179.052730 3350.680867,140.450065 3357.282244,110.057359 3357.044491,97.664714 3356.828618,74.317270 3360.009241,65.188644 3364.221938,59.613989 3363.430524,55.578160 3360.180257,48.981317 3351.379139,39.616414 3348.704833,24.895403 3343.437707,-0.763537 3343.944702,-23.647605 3347.431438,-66.133581 3394.233377,-60.127988 3390.029305,-54.564618 3385.047660,-52.315928 3380.056884,-50.078158 3380.002812,-41.264786 3386.085708,-35.421483 3393.744538,-36.289795 3403.158180,-43.850949 3434.656278,-74.010700 3447.134223,-72.574057 3453.793910,-63.179098 3451.930845,-59.802684 3445.303808,-55.857685 3441.099706,-50.294341 3441.704862,-43.868725 3447.295907,-39.936017 3448.365199,-33.508201 3449.534455,-22.332078 3444.144012,-16.268745 3440.144227,-12.618285 3438.071752,-8.527537 3439.312994,-6.165127 3442.949709,-3.615577 3449.404526,-3.972413 3454.245661,-1.445951 3456.005254,2.815492 3457.342210,10.170464 3454.783060,13.549126 3454.883900,19.274099 3459.257303,23.008185 3465.293919,25.511732 3476.229824,21.006899 3491.220622,16.191280 3500.548416,16.256654 3508.276335,19.926467 3511.976366,24.849943 3512.290843,29.616335 3512.932518,37.950222 3519.056956,57.610636 3519.527308,82.151837 3508.942532,104.041475 3507.631057,123.622438 3509.299844,135.255136 3514.228301,143.273787 3529.542722,154.889124 3545.314753,196.906021 3543.902938,214.979484 3542.799061,229.095927 3583.902138,274.068057 3607.358199,281.165763 3625.052252,283.312917 3643.694508,285.575130 3666.803842,297.407659 3682.635871,316.038777 3678.815143,361.194633"/>
    <poly id="1043255101" type="leisure.pitch" color="207,245,201" fill="1" layer="-2.00" shape="709.603391,409.024096 708.056562,385.990838 697.940126,386.665338 699.495903,409.698421 709.603391,409.024096"/>
    <poly id="1043255101#1" type="sport.tennis" color="79,230,125" fill="1" layer="-2.00" shape="709.603391,409.024096 708.056562,385.990838 697.940126,386.665338 699.495903,409.698421 709.603391,409.024096"/>
    <poly id="1043255102" type="leisure.pitch" color="207,245,201" fill="1" layer="-2.00" shape="695.488876,410.165013 693.260741,386.978557 682.927330,387.968074 685.155492,411.154528 695.488876,410.165013"/>
    <poly id="1043255102#1" type="sport.tennis" color="79,230,125" fill="1" layer="-2.00" shape="695.488876,410.165013 693.260741,386.978557 682.927330,387.968074 685.155492,411.154528 695.488876,410.165013"/>
    <poly id="1043255103" type="leisure.pitch" color="207,245,201" fill="1" layer="-2.00" shape="681.599992,411.434740 679.350083,388.048931 669.016457,389.027370 671.266395,412.413177 681.599992,411.434740"/>
    <poly id="1043255103#1" type="sport.tennis" color="79,230,125" fill="1" layer="-2.00" shape="681.599992,411.434740 679.350083,388.048931 669.016457,389.027370 671.266395,412.413177 681.599992,411.434740"/>
    <poly id="1047817359" type="leisure.park" color="207,245,201" fill="1" layer="-2.00" shape="2523.440607,859.710244 2526.979565,862.283486 2563.420011,860.604044 2553.810567,837.559701 2545.758854,810.145721 2521.680637,810.565699 2523.440607,859.710244"/>
    <poly id="1047817360" type="leisure.park" color="207,245,201" fill="1" layer="-2.00" shape="2373.050479,634.066909 2313.486516,647.325654 2309.400103,646.450074 2285.740081,599.237895 2373.877666,613.118716 2373.050479,634.066909"/>
    <poly id="1047817361" type="building.apartments" color="255,230,230" fill="1" layer="-1.00" shape="2446.325769,758.345933 2446.035324,747.918724 2470.554848,747.234757 2470.497836,745.204788 2470.226784,745.032438 2477.052058,734.301468 2493.322820,744.575778 2486.765736,754.868710 2493.667017,774.446932 2484.314985,777.712791 2481.737251,770.381861 2478.767802,771.426935 2477.776315,768.604786 2479.416406,768.040406 2478.698607,765.989889 2480.276466,765.437808 2477.972628,758.889605 2481.607082,757.620826 2480.190609,753.586015 2473.450209,749.287657 2470.640550,749.364061 2470.854826,757.695078 2462.104491,757.919397 2462.174991,760.648326 2459.053105,760.730757 2459.028129,759.898834 2456.325524,759.973177 2456.271077,758.076344 2446.325769,758.345933"/>
    <poly id="1047817362" type="building.apartments" color="255,230,230" fill="1" layer="-1.00" shape="2447.906006,824.053269 2447.615559,813.626059 2472.134895,812.942090 2472.077882,810.912121 2471.806831,810.739771 2478.632049,800.008799 2494.902690,810.283109 2488.345661,820.576042 2495.256030,840.165188 2485.886444,843.442487 2483.308727,836.111556 2480.339302,837.156630 2479.347607,834.323387 2480.996392,833.747740 2480.279025,831.719412 2481.883421,831.155720 2479.579598,824.607517 2483.196182,823.339081 2481.770584,819.293348 2475.021313,814.995162 2472.220597,815.071394 2472.434874,823.402412 2463.684606,823.626731 2463.755107,826.355660 2460.633245,826.438092 2460.608269,825.606169 2457.905685,825.680512 2457.851237,823.783679 2447.906006,824.053269"/>
    <poly id="1047817363" type="building.apartments" color="255,230,230" fill="1" layer="-1.00" shape="2451.922560,884.674771 2451.641036,874.247388 2476.151489,873.574691 2476.094263,871.533628 2475.823214,871.361277 2482.639676,860.641573 2498.909988,870.904793 2492.353005,881.197726 2499.254192,900.775952 2489.911221,904.041638 2487.333736,896.721800 2484.364118,897.755780 2483.363723,894.933803 2485.012710,894.369250 2484.294921,892.318733 2485.872757,891.766652 2483.568950,885.218448 2487.194429,883.949841 2485.777975,879.915029 2479.037673,875.616670 2476.236977,875.692901 2476.451039,884.012825 2467.691913,884.237314 2467.762628,886.977338 2464.649708,887.059598 2464.624946,886.238769 2461.913247,886.302189 2461.867506,884.394088 2451.922560,884.674771"/>