<?xml version="1.0" encoding="UTF-8"?>

<!-- generated on 2025-10-15 13:22:57 by Eclipse SUMO netedit Version 1.24.0
<neteditConfiguration xmlns:xsi="http://www.w3.org/2001/XMLSchema-instance" xsi:noNamespaceSchemaLocation="http://sumo.dlr.de/xsd/neteditConfiguration.xsd">

    <input>
        <sumocfg-file value="C:\Users\26144\test1234\First\osm.sumocfg"/>
        <sumo-net-file value="C:\Users\26144\test1234\First\../../Sumo/2025-10-15-10-42-49/osm.net.xml.gz"/>
    </input>

    <output>
        <output-file value="C:\Users\26144\test1234\First\../../Sumo/2025-10-15-10-42-49/osm.net.xml.gz"/>
        <output.street-names value="true"/>
    </output>

    <processing>
        <geometry.min-radius.fix.railways value="false"/>
        <geometry.avoid-overlap value="false"/>
        <geometry.max-grade.fix value="false"/>
        <offset.disable-normalization value="true"/>
        <lefthand value="0"/>
    </processing>

    <junctions>
        <no-turnarounds value="true"/>
        <junctions.corner-detail value="5"/>
        <junctions.limit-turn-speed value="5.50"/>
        <rectangular-lane-cut value="0"/>
    </junctions>

    <pedestrian>
        <walkingareas value="0"/>
    </pedestrian>

    <netedit>
        <ignore.routeelements value="false"/>
    </netedit>

</neteditConfiguration>
-->

<net version="1.20" junctionCornerDetail="5" limitTurnSpeed="5.50" avoidOverlap="0" xmlns:xsi="http://www.w3.org/2001/XMLSchema-instance" xsi:noNamespaceSchemaLocation="http://sumo.dlr.de/xsd/net_file.xsd">

    <location netOffset="-333022.58,-4074728.37" convBoundary="0.00,0.00,10492.62,16456.41" origBoundary="127.124841,36.803779,127.242687,36.952873" projParameter="+proj=utm +zone=52 +ellps=WGS84 +datum=WGS84 +units=m +no_defs"/>

    <type id="highway.motorway" priority="14" numLanes="2" speed="39.44" allow="private emergency authority army vip passenger hov taxi bus coach delivery truck trailer motorcycle evehicle custom1 custom2" oneway="1"/>
    <type id="highway.motorway_link" priority="9" numLanes="1" speed="22.22" allow="private emergency authority army vip passenger hov taxi bus coach delivery truck trailer motorcycle evehicle custom1 custom2" oneway="1"/>
    <type id="highway.service" priority="1" numLanes="1" speed="5.56" allow="pedestrian delivery bicycle" oneway="0"/>
    <type id="highway.tertiary" priority="10" numLanes="1" speed="22.22" disallow="tram rail_urban rail rail_electric rail_fast ship container cable_car subway aircraft wheelchair scooter drone" oneway="0"/>
    <type id="highway.tertiary_link" priority="5" numLanes="1" speed="22.22" disallow="tram rail_urban rail rail_electric rail_fast ship container cable_car subway aircraft wheelchair scooter drone" oneway="0"/>
    <type id="highway.trunk" priority="13" numLanes="2" speed="27.78" disallow="pedestrian bicycle tram rail_urban rail rail_electric rail_fast ship container cable_car subway aircraft wheelchair scooter drone" oneway="0"/>
    <type id="highway.trunk_link" priority="8" numLanes="1" speed="22.22" disallow="pedestrian bicycle tram rail_urban rail rail_electric rail_fast ship container cable_car subway aircraft wheelchair scooter drone" oneway="0"/>
    <type id="railway.rail" priority="20" numLanes="1" speed="44.44" allow="rail" oneway="1"/>

    <edge id=":100113701#2-AddedOffRampNode_0" function="internal">
        <lane id=":100113701#2-AddedOffRampNode_0_0" index="0" allow="private emergency authority army vip passenger hov taxi bus coach delivery truck trailer motorcycle evehicle custom1 custom2" speed="30.56" length="8.16" shape="5745.95,14742.49 5746.54,14744.93 5747.70,14746.43 5748.85,14747.93 5749.44,14750.37"/>
        <lane id=":100113701#2-AddedOffRampNode_0_1" index="1" allow="private emergency authority army vip passenger hov taxi bus coach delivery truck trailer motorcycle evehicle custom1 custom2" speed="30.56" length="8.16" shape="5745.95,14742.49 5746.24,14750.48"/>
        <lane id=":100113701#2-AddedOffRampNode_0_2" index="2" allow="private emergency authority army vip passenger hov taxi bus coach delivery truck trailer motorcycle evehicle custom1 custom2" speed="30.56" length="8.16" shape="5742.76,14742.60 5743.04,14750.60"/>
        <lane id=":100113701#2-AddedOffRampNode_0_3" index="3" allow="private emergency authority army vip passenger hov taxi bus coach delivery truck trailer motorcycle evehicle custom1 custom2" speed="30.56" length="8.16" shape="5739.56,14742.72 5739.85,14750.71"/>
        <lane id=":100113701#2-AddedOffRampNode_0_4" index="4" allow="private emergency authority army vip passenger hov taxi bus coach delivery truck trailer motorcycle evehicle custom1 custom2" speed="30.56" length="8.16" shape="5736.36,14742.83 5736.65,14750.83"/>
    </edge>
    <edge id=":100113701#2-AddedOnRampNode_0" function="internal">
        <lane id=":100113701#2-AddedOnRampNode_0_0" index="0" allow="private emergency authority army vip passenger hov taxi bus coach delivery truck trailer motorcycle evehicle custom1 custom2" speed="30.56" length="8.00" shape="5648.46,10682.00 5648.50,10690.00"/>
        <lane id=":100113701#2-AddedOnRampNode_0_1" index="1" allow="private emergency authority army vip passenger hov taxi bus coach delivery truck trailer motorcycle evehicle custom1 custom2" speed="30.56" length="8.00" shape="5645.26,10682.02 5645.30,10690.02"/>
        <lane id=":100113701#2-AddedOnRampNode_0_2" index="2" allow="private emergency authority army vip passenger hov taxi bus coach delivery truck trailer motorcycle evehicle custom1 custom2" speed="30.56" length="8.00" shape="5642.06,10682.03 5642.10,10690.03"/>
        <lane id=":100113701#2-AddedOnRampNode_0_3" index="3" allow="private emergency authority army vip passenger hov taxi bus coach delivery truck trailer motorcycle evehicle custom1 custom2" speed="30.56" length="8.00" shape="5638.86,10682.04 5638.90,10690.04"/>
    </edge>
    <edge id=":100113736#2-AddedOffRampNode_0" function="internal">
        <lane id=":100113736#2-AddedOffRampNode_0_0" index="0" allow="private emergency authority army vip passenger hov taxi bus coach delivery truck trailer motorcycle evehicle custom1 custom2" speed="30.56" length="8.16" shape="3865.45,2795.54 3863.72,2793.72 3861.97,2792.99 3860.23,2792.27 3858.50,2790.44"/>
        <lane id=":100113736#2-AddedOffRampNode_0_1" index="1" allow="private emergency authority army vip passenger hov taxi bus coach delivery truck trailer motorcycle evehicle custom1 custom2" speed="30.56" length="8.16" shape="3865.45,2795.54 3861.22,2788.75"/>
        <lane id=":100113736#2-AddedOffRampNode_0_2" index="2" allow="private emergency authority army vip passenger hov taxi bus coach delivery truck trailer motorcycle evehicle custom1 custom2" speed="30.56" length="8.16" shape="3868.16,2793.85 3863.94,2787.06"/>
        <lane id=":100113736#2-AddedOffRampNode_0_3" index="3" allow="private emergency authority army vip passenger hov taxi bus coach delivery truck trailer motorcycle evehicle custom1 custom2" speed="30.56" length="8.16" shape="3870.88,2792.16 3866.66,2785.37"/>
        <lane id=":100113736#2-AddedOffRampNode_0_4" index="4" allow="private emergency authority army vip passenger hov taxi bus coach delivery truck trailer motorcycle evehicle custom1 custom2" speed="30.56" length="8.16" shape="3873.60,2790.47 3869.37,2783.68"/>
    </edge>
    <edge id=":100113736#2-AddedOnRampNode_0" function="internal">
        <lane id=":100113736#2-AddedOnRampNode_0_0" index="0" allow="private emergency authority army vip passenger hov taxi bus coach delivery truck trailer motorcycle evehicle custom1 custom2" speed="30.56" length="8.00" shape="4697.47,5132.47 4694.04,5125.25"/>
        <lane id=":100113736#2-AddedOnRampNode_0_1" index="1" allow="private emergency authority army vip passenger hov taxi bus coach delivery truck trailer motorcycle evehicle custom1 custom2" speed="30.56" length="8.00" shape="4700.36,5131.10 4696.93,5123.88"/>
        <lane id=":100113736#2-AddedOnRampNode_0_2" index="2" allow="private emergency authority army vip passenger hov taxi bus coach delivery truck trailer motorcycle evehicle custom1 custom2" speed="30.56" length="8.00" shape="4703.25,5129.73 4699.82,5122.50"/>
        <lane id=":100113736#2-AddedOnRampNode_0_3" index="3" allow="private emergency authority army vip passenger hov taxi bus coach delivery truck trailer motorcycle evehicle custom1 custom2" speed="30.56" length="8.00" shape="4706.15,5128.36 4702.71,5121.13"/>
    </edge>
    <edge id=":1015980908_0" function="internal">
        <lane id=":1015980908_0_0" index="0" disallow="pedestrian bicycle tram rail_urban rail rail_electric rail_fast ship container cable_car subway aircraft wheelchair scooter drone" speed="25.00" length="8.17" shape="2162.20,3864.61 2164.63,3864.47 2166.27,3864.01 2167.92,3863.56 2170.34,3863.48"/>
        <lane id=":1015980908_0_1" index="1" disallow="pedestrian bicycle tram rail_urban rail rail_electric rail_fast ship container cable_car subway aircraft wheelchair scooter drone" speed="25.00" length="8.17" shape="2162.05,3867.80 2164.45,3867.67 2166.08,3867.20 2167.71,3866.76 2170.12,3866.67"/>
        <lane id=":1015980908_0_2" index="2" disallow="pedestrian bicycle tram rail_urban rail rail_electric rail_fast ship container cable_car subway aircraft wheelchair scooter drone" speed="25.00" length="8.17" shape="2161.90,3871.00 2164.28,3870.86 2165.90,3870.40 2167.51,3869.95 2169.90,3869.86"/>
        <lane id=":1015980908_0_3" index="3" disallow="pedestrian bicycle tram rail_urban rail rail_electric rail_fast ship container cable_car subway aircraft wheelchair scooter drone" speed="25.00" length="8.17" shape="2161.90,3871.00 2164.24,3871.36 2165.79,3871.99 2167.33,3872.64 2169.67,3873.06"/>
    </edge>
    <edge id=":1015980913_0" function="internal">
        <lane id=":1015980913_0_0" index="0" disallow="pedestrian bicycle tram rail_urban rail rail_electric rail_fast ship container cable_car subway aircraft wheelchair scooter drone" speed="16.66" length="3.43" shape="2615.11,3867.90 2616.06,3867.85 2616.71,3867.80 2617.36,3867.71 2618.30,3867.54"/>
        <lane id=":1015980913_0_1" index="1" disallow="pedestrian bicycle tram rail_urban rail rail_electric rail_fast ship container cable_car subway aircraft wheelchair scooter drone" speed="16.66" length="3.43" shape="2615.25,3871.09 2616.33,3871.04 2617.07,3870.99 2617.80,3870.88 2618.87,3870.69"/>
    </edge>
    <edge id=":1015980913_2" function="internal">
        <lane id=":1015980913_2_0" index="0" disallow="pedestrian bicycle tram rail_urban rail rail_electric rail_fast ship container cable_car subway aircraft wheelchair scooter drone" speed="22.22" length="3.25" shape="2616.04,3874.54 2619.44,3873.84"/>
        <lane id=":1015980913_2_1" index="1" disallow="pedestrian bicycle tram rail_urban rail rail_electric rail_fast ship container cable_car subway aircraft wheelchair scooter drone" speed="22.22" length="3.25" shape="2616.76,3877.66 2620.01,3876.99"/>
        <lane id=":1015980913_2_2" index="2" disallow="pedestrian bicycle tram rail_urban rail rail_electric rail_fast ship container cable_car subway aircraft wheelchair scooter drone" speed="22.22" length="3.25" shape="2617.48,3880.78 2620.58,3880.14"/>
        <lane id=":1015980913_2_3" index="3" disallow="pedestrian bicycle tram rail_urban rail rail_electric rail_fast ship container cable_car subway aircraft wheelchair scooter drone" speed="22.22" length="3.25" shape="2618.20,3883.90 2621.15,3883.29"/>
    </edge>
    <edge id=":1050927713_0" function="internal">
        <lane id=":1050927713_0_0" index="0" disallow="pedestrian bicycle tram rail_urban rail rail_electric rail_fast ship container cable_car subway aircraft wheelchair scooter drone" speed="19.45" length="0.24" shape="373.49,10126.13 373.43,10126.23"/>
        <lane id=":1050927713_0_1" index="1" disallow="pedestrian bicycle tram rail_urban rail rail_electric rail_fast ship container cable_car subway aircraft wheelchair scooter drone" speed="19.45" length="0.24" shape="370.78,10124.43 370.60,10124.74"/>
    </edge>
    <edge id=":1050927833_0" function="internal">
        <lane id=":1050927833_0_0" index="0" disallow="pedestrian bicycle tram rail_urban rail rail_electric rail_fast ship container cable_car subway aircraft wheelchair scooter drone" speed="19.45" length="0.25" shape="362.85,10121.40 363.01,10121.12"/>
        <lane id=":1050927833_0_1" index="1" disallow="pedestrian bicycle tram rail_urban rail rail_electric rail_fast ship container cable_car subway aircraft wheelchair scooter drone" speed="19.45" length="0.25" shape="365.67,10122.92 365.76,10122.76"/>
    </edge>
    <edge id=":1050927957_0" function="internal">
        <lane id=":1050927957_0_0" index="0" disallow="pedestrian bicycle tram rail_urban rail rail_electric rail_fast ship container cable_car subway aircraft wheelchair scooter drone" speed="27.78" length="2.71" shape="752.49,14618.60 750.30,14616.86"/>
        <lane id=":1050927957_0_1" index="1" disallow="pedestrian bicycle tram rail_urban rail rail_electric rail_fast ship container cable_car subway aircraft wheelchair scooter drone" speed="27.78" length="2.71" shape="754.40,14616.03 752.35,14614.41"/>
    </edge>
    <edge id=":1050927957_2" function="internal">
        <lane id=":1050927957_2_0" index="0" disallow="pedestrian bicycle tram rail_urban rail rail_electric rail_fast ship container cable_car subway aircraft wheelchair scooter drone" speed="25.00" length="3.07" shape="748.72,14623.64 747.94,14623.12 747.42,14622.76 746.91,14622.37 746.19,14621.77"/>
        <lane id=":1050927957_2_1" index="1" disallow="pedestrian bicycle tram rail_urban rail rail_electric rail_fast ship container cable_car subway aircraft wheelchair scooter drone" speed="25.00" length="3.07" shape="750.64,14621.07 749.90,14620.58 749.40,14620.24 748.92,14619.88 748.24,14619.32"/>
    </edge>
    <edge id=":1050927985_0" function="internal">
        <lane id=":1050927985_0_0" index="0" disallow="pedestrian bicycle tram rail_urban rail rail_electric rail_fast ship container cable_car subway aircraft wheelchair scooter drone" speed="25.00" length="0.29" shape="311.11,14096.86 310.89,14096.69"/>
        <lane id=":1050927985_0_1" index="1" disallow="pedestrian bicycle tram rail_urban rail rail_electric rail_fast ship container cable_car subway aircraft wheelchair scooter drone" speed="25.00" length="0.29" shape="313.03,14094.30 312.78,14094.11"/>
    </edge>
    <edge id=":108777002#0-AddedOffRampNode_0" function="internal">
        <lane id=":108777002#0-AddedOffRampNode_0_0" index="0" allow="private emergency authority army vip passenger hov taxi bus coach delivery truck trailer motorcycle evehicle custom1 custom2" speed="27.78" length="8.13" shape="3551.01,2202.43 3552.36,2204.55 3553.94,2205.59 3555.52,2206.63 3556.87,2208.75"/>
        <lane id=":108777002#0-AddedOffRampNode_0_1" index="1" allow="private emergency authority army vip passenger hov taxi bus coach delivery truck trailer motorcycle evehicle custom1 custom2" speed="27.78" length="8.13" shape="3551.01,2202.43 3553.89,2209.90"/>
        <lane id=":108777002#0-AddedOffRampNode_0_2" index="2" allow="private emergency authority army vip passenger hov taxi bus coach delivery truck trailer motorcycle evehicle custom1 custom2" speed="27.78" length="8.13" shape="3548.03,2203.58 3550.90,2211.05"/>
        <lane id=":108777002#0-AddedOffRampNode_0_3" index="3" allow="private emergency authority army vip passenger hov taxi bus coach delivery truck trailer motorcycle evehicle custom1 custom2" speed="27.78" length="8.13" shape="3545.04,2204.73 3547.92,2212.20"/>
        <lane id=":108777002#0-AddedOffRampNode_0_4" index="4" allow="private emergency authority army vip passenger hov taxi bus coach delivery truck trailer motorcycle evehicle custom1 custom2" speed="27.78" length="8.13" shape="3542.05,2205.89 3544.93,2213.35"/>
        <lane id=":108777002#0-AddedOffRampNode_0_5" index="5" allow="private emergency authority army vip passenger hov taxi bus coach delivery truck trailer motorcycle evehicle custom1 custom2" speed="27.78" length="8.13" shape="3539.07,2207.04 3541.94,2214.50"/>
    </edge>
    <edge id=":1124337447-AddedOffRampNode_0" function="internal">
        <lane id=":1124337447-AddedOffRampNode_0_0" index="0" disallow="pedestrian bicycle tram rail_urban rail rail_electric rail_fast ship container cable_car subway aircraft wheelchair scooter drone" speed="22.22" length="8.40" shape="3383.26,2532.95 3381.14,2534.30 3380.10,2535.87 3379.06,2537.45 3376.94,2538.80"/>
        <lane id=":1124337447-AddedOffRampNode_0_1" index="1" disallow="pedestrian bicycle tram rail_urban rail rail_electric rail_fast ship container cable_car subway aircraft wheelchair scooter drone" speed="22.22" length="8.40" shape="3383.26,2532.95 3375.79,2535.81"/>
    </edge>
    <edge id=":112551389-AddedOnRampNode_0" function="internal">
        <lane id=":112551389-AddedOnRampNode_0_0" index="0" disallow="pedestrian bicycle tram rail_urban rail rail_electric rail_fast ship container cable_car subway aircraft wheelchair scooter drone" speed="27.78" length="7.84" shape="10399.19,14764.45 10396.48,14757.10"/>
        <lane id=":112551389-AddedOnRampNode_0_1" index="1" disallow="pedestrian bicycle tram rail_urban rail rail_electric rail_fast ship container cable_car subway aircraft wheelchair scooter drone" speed="27.78" length="7.84" shape="10402.20,14763.35 10399.48,14756.00"/>
    </edge>
    <edge id=":1157338118_0" function="internal">
        <lane id=":1157338118_0_0" index="0" allow="private emergency authority army vip passenger hov taxi bus coach delivery truck trailer motorcycle evehicle custom1 custom2" speed="27.78" length="8.19" shape="3360.24,731.21 3360.71,733.61 3361.39,735.18 3362.06,736.76 3362.47,739.16"/>
        <lane id=":1157338118_0_1" index="1" allow="private emergency authority army vip passenger hov taxi bus coach delivery truck trailer motorcycle evehicle custom1 custom2" speed="27.78" length="8.19" shape="3360.24,731.21 3360.21,733.64 3359.80,735.29 3359.36,736.94 3359.28,739.38"/>
        <lane id=":1157338118_0_2" index="2" allow="private emergency authority army vip passenger hov taxi bus coach delivery truck trailer motorcycle evehicle custom1 custom2" speed="27.78" length="8.19" shape="3357.06,731.50 3357.02,733.90 3356.61,735.54 3356.17,737.18 3356.08,739.59"/>
        <lane id=":1157338118_0_3" index="3" allow="private emergency authority army vip passenger hov taxi bus coach delivery truck trailer motorcycle evehicle custom1 custom2" speed="27.78" length="8.19" shape="3353.87,731.78 3353.83,734.17 3353.42,735.79 3352.98,737.41 3352.89,739.80"/>
        <lane id=":1157338118_0_4" index="4" allow="private emergency authority army vip passenger hov taxi bus coach delivery truck trailer motorcycle evehicle custom1 custom2" speed="27.78" length="8.19" shape="3350.68,732.07 3350.64,734.43 3350.23,736.04 3349.79,737.65 3349.70,740.01"/>
    </edge>
    <edge id=":121060154#0-AddedOffRampNode_0" function="internal">
        <lane id=":121060154#0-AddedOffRampNode_0_0" index="0" disallow="pedestrian bicycle tram rail_urban rail rail_electric rail_fast ship container cable_car subway aircraft wheelchair scooter drone" speed="11.11" length="8.40" shape="1384.73,9397.42 1386.95,9398.58 1388.84,9398.70 1390.73,9398.82 1392.95,9399.99"/>
        <lane id=":121060154#0-AddedOffRampNode_0_1" index="1" disallow="pedestrian bicycle tram rail_urban rail rail_electric rail_fast ship container cable_car subway aircraft wheelchair scooter drone" speed="11.11" length="8.40" shape="1384.73,9397.42 1390.93,9402.47"/>
    </edge>
    <edge id=":1247088657_0" function="internal">
        <lane id=":1247088657_0_0" index="0" disallow="pedestrian bicycle tram rail_urban rail rail_electric rail_fast ship container cable_car subway aircraft wheelchair scooter drone" speed="22.22" length="3.29" shape="3240.99,10328.44 3244.10,10329.50"/>
    </edge>
    <edge id=":1247088657_1" function="internal">
        <lane id=":1247088657_1_0" index="0" disallow="pedestrian bicycle tram rail_urban rail rail_electric rail_fast ship container cable_car subway aircraft wheelchair scooter drone" speed="22.22" length="3.28" shape="3239.94,10331.46 3240.90,10331.80 3241.55,10332.04 3242.19,10332.31 3243.12,10332.72"/>
        <lane id=":1247088657_1_1" index="1" disallow="pedestrian bicycle tram rail_urban rail rail_electric rail_fast ship container cable_car subway aircraft wheelchair scooter drone" speed="22.22" length="3.28" shape="3238.90,10334.49 3239.78,10334.79 3240.38,10335.02 3240.97,10335.26 3241.82,10335.64"/>
    </edge>
    <edge id=":1263404641_0" function="internal">
        <lane id=":1263404641_0_0" index="0" disallow="pedestrian bicycle tram rail_urban rail rail_electric rail_fast ship container cable_car subway aircraft wheelchair scooter drone" speed="22.22" length="7.94" shape="10450.33,14866.81 10451.42,14868.88 10452.48,14870.14 10453.49,14871.42 10454.43,14873.54"/>
    </edge>
    <edge id=":12730775286_0" function="internal">
        <lane id=":12730775286_0_0" index="0" disallow="pedestrian bicycle tram rail_urban rail rail_electric rail_fast ship container cable_car subway aircraft wheelchair scooter drone" speed="22.22" length="2.86" shape="1432.99,9664.49 1430.21,9665.16"/>
    </edge>
    <edge id=":12730775286_1" function="internal">
        <lane id=":12730775286_1_0" index="0" disallow="pedestrian bicycle tram rail_urban rail rail_electric rail_fast ship container cable_car subway aircraft wheelchair scooter drone" speed="22.22" length="3.03" shape="1432.28,9661.37 1429.38,9662.02"/>
        <lane id=":12730775286_1_1" index="1" disallow="pedestrian bicycle tram rail_urban rail rail_electric rail_fast ship container cable_car subway aircraft wheelchair scooter drone" speed="22.22" length="3.03" shape="1431.58,9658.24 1428.57,9658.92"/>
    </edge>
    <edge id=":12730775357_0" function="internal">
        <lane id=":12730775357_0_0" index="0" disallow="pedestrian bicycle tram rail_urban rail rail_electric rail_fast ship container cable_car subway aircraft wheelchair scooter drone" speed="22.22" length="3.23" shape="1623.18,9607.12 1626.33,9606.43"/>
        <lane id=":12730775357_0_1" index="1" disallow="pedestrian bicycle tram rail_urban rail rail_electric rail_fast ship container cable_car subway aircraft wheelchair scooter drone" speed="22.22" length="3.23" shape="1623.86,9610.25 1627.01,9609.55"/>
    </edge>
    <edge id=":12730775357_2" function="internal">
        <lane id=":12730775357_2_0" index="0" disallow="pedestrian bicycle tram rail_urban rail rail_electric rail_fast ship container cable_car subway aircraft wheelchair scooter drone" speed="16.66" length="3.23" shape="1622.53,9604.14 1625.65,9603.30"/>
    </edge>
    <edge id=":1276911096_0" function="internal">
        <lane id=":1276911096_0_0" index="0" disallow="pedestrian bicycle tram rail_urban rail rail_electric rail_fast ship container cable_car subway aircraft wheelchair scooter drone" speed="25.00" length="1.02" shape="10425.34,14844.84 10425.32,14844.74 10425.31,14844.67 10425.29,14844.60 10425.26,14844.51"/>
        <lane id=":1276911096_0_1" index="1" disallow="pedestrian bicycle tram rail_urban rail rail_electric rail_fast ship container cable_car subway aircraft wheelchair scooter drone" speed="25.00" length="1.02" shape="10428.51,14844.39 10428.46,14844.09 10428.42,14843.89 10428.36,14843.69 10428.26,14843.40"/>
        <lane id=":1276911096_0_2" index="2" disallow="pedestrian bicycle tram rail_urban rail rail_electric rail_fast ship container cable_car subway aircraft wheelchair scooter drone" speed="25.00" length="1.02" shape="10431.68,14843.94 10431.60,14843.44 10431.53,14843.10 10431.43,14842.77 10431.26,14842.30"/>
    </edge>
    <edge id=":1356436551_0" function="internal">
        <lane id=":1356436551_0_0" index="0" allow="rail rail_electric rail_fast" speed="29.16" length="0.20" shape="1868.90,3979.23 1868.93,3979.03"/>
    </edge>
    <edge id=":1381355252_0" function="internal">
        <lane id=":1381355252_0_0" index="0" allow="private emergency authority army vip passenger hov taxi bus coach delivery truck trailer motorcycle evehicle custom1 custom2" speed="26.39" length="2.64" shape="5067.68,5910.85 5066.47,5908.50"/>
    </edge>
    <edge id=":1381355252_1" function="internal">
        <lane id=":1381355252_1_0" index="0" allow="private emergency authority army vip passenger hov taxi bus coach delivery truck trailer motorcycle evehicle custom1 custom2" speed="30.56" length="3.02" shape="5070.56,5909.45 5069.34,5906.94"/>
        <lane id=":1381355252_1_1" index="1" allow="private emergency authority army vip passenger hov taxi bus coach delivery truck trailer motorcycle evehicle custom1 custom2" speed="30.56" length="3.02" shape="5073.44,5908.06 5072.15,5905.41"/>
        <lane id=":1381355252_1_2" index="2" allow="private emergency authority army vip passenger hov taxi bus coach delivery truck trailer motorcycle evehicle custom1 custom2" speed="30.56" length="3.02" shape="5076.32,5906.66 5074.97,5903.88"/>
        <lane id=":1381355252_1_3" index="3" allow="private emergency authority army vip passenger hov taxi bus coach delivery truck trailer motorcycle evehicle custom1 custom2" speed="30.56" length="3.02" shape="5079.19,5905.27 5077.78,5902.34"/>
    </edge>
    <edge id=":1445488500_0" function="internal">
        <lane id=":1445488500_0_0" index="0" allow="private emergency authority army vip passenger hov taxi bus coach delivery truck trailer motorcycle evehicle custom1 custom2" speed="16.66" length="0.24" shape="5768.13,15049.24 5768.13,15049.31 5768.14,15049.36 5768.15,15049.41 5768.17,15049.48"/>
    </edge>
    <edge id=":170299356#1-AddedOffRampNode_0" function="internal">
        <lane id=":170299356#1-AddedOffRampNode_0_0" index="0" disallow="pedestrian bicycle tram rail_urban rail rail_electric rail_fast ship container cable_car subway aircraft wheelchair scooter drone" speed="22.22" length="8.27" shape="1532.32,9638.74 1530.03,9639.77 1528.77,9641.18 1527.52,9642.59 1525.23,9643.62"/>
        <lane id=":170299356#1-AddedOffRampNode_0_1" index="1" disallow="pedestrian bicycle tram rail_urban rail rail_electric rail_fast ship container cable_car subway aircraft wheelchair scooter drone" speed="22.22" length="8.27" shape="1532.32,9638.74 1524.52,9640.50"/>
        <lane id=":170299356#1-AddedOffRampNode_0_2" index="2" disallow="pedestrian bicycle tram rail_urban rail rail_electric rail_fast ship container cable_car subway aircraft wheelchair scooter drone" speed="22.22" length="8.27" shape="1531.62,9635.62 1523.81,9637.38"/>
    </edge>
    <edge id=":170299356#1-AddedOnRampNode_0" function="internal">
        <lane id=":170299356#1-AddedOnRampNode_0_0" index="0" disallow="pedestrian bicycle tram rail_urban rail rail_electric rail_fast ship container cable_car subway aircraft wheelchair scooter drone" speed="22.22" length="8.00" shape="3114.50,10282.91 3107.53,10278.98"/>
        <lane id=":170299356#1-AddedOnRampNode_0_1" index="1" disallow="pedestrian bicycle tram rail_urban rail rail_electric rail_fast ship container cable_car subway aircraft wheelchair scooter drone" speed="22.22" length="8.00" shape="3116.07,10280.12 3109.11,10276.19"/>
    </edge>
    <edge id=":170299362#0-AddedOffRampNode_0" function="internal">
        <lane id=":170299362#0-AddedOffRampNode_0_0" index="0" disallow="pedestrian bicycle tram rail_urban rail rail_electric rail_fast ship container cable_car subway aircraft wheelchair scooter drone" speed="22.22" length="8.40" shape="3331.09,10354.91 3333.60,10354.97 3335.35,10354.25 3337.10,10353.53 3339.61,10353.59"/>
        <lane id=":170299362#0-AddedOffRampNode_0_1" index="1" disallow="pedestrian bicycle tram rail_urban rail rail_electric rail_fast ship container cable_car subway aircraft wheelchair scooter drone" speed="22.22" length="8.40" shape="3331.09,10354.91 3338.89,10356.71"/>
    </edge>
    <edge id=":170299365#1-AddedOnRampNode_0" function="internal">
        <lane id=":170299365#1-AddedOnRampNode_0_0" index="0" disallow="pedestrian bicycle tram rail_urban rail rail_electric rail_fast ship container cable_car subway aircraft wheelchair scooter drone" speed="22.22" length="7.99" shape="3668.96,10422.90 3676.79,10424.49"/>
    </edge>
    <edge id=":170299368#1-AddedOffRampNode_0" function="internal">
        <lane id=":170299368#1-AddedOffRampNode_0_0" index="0" disallow="pedestrian bicycle tram rail_urban rail rail_electric rail_fast ship container cable_car subway aircraft wheelchair scooter drone" speed="22.22" length="8.27" shape="4279.93,10649.84 4282.07,10651.15 4283.95,10651.39 4285.82,10651.62 4287.97,10652.93"/>
        <lane id=":170299368#1-AddedOffRampNode_0_1" index="1" disallow="pedestrian bicycle tram rail_urban rail rail_electric rail_fast ship container cable_car subway aircraft wheelchair scooter drone" speed="22.22" length="8.27" shape="4279.93,10649.84 4285.79,10655.28"/>
        <lane id=":170299368#1-AddedOffRampNode_0_2" index="2" disallow="pedestrian bicycle tram rail_urban rail rail_electric rail_fast ship container cable_car subway aircraft wheelchair scooter drone" speed="22.22" length="8.27" shape="4277.75,10652.19 4283.62,10657.62"/>
    </edge>
    <edge id=":170299368#1-AddedOnRampNode_0" function="internal">
        <lane id=":170299368#1-AddedOnRampNode_0_0" index="0" disallow="pedestrian bicycle tram rail_urban rail rail_electric rail_fast ship container cable_car subway aircraft wheelchair scooter drone" speed="22.22" length="8.00" shape="3978.21,10485.52 3986.03,10487.19"/>