<?xml version="1.0" encoding="UTF-8"?>

<sumoConfiguration xmlns:xsi="http://www.w3.org/2001/XMLSchema-instance" xsi:noNamespaceSchemaLocation="http://sumo.dlr.de/xsd/sumoConfiguration.xsd">

    <input>
        <net-file value="final.net.xml"/>
        <additional-files value="final.add.xml"/>
        <route-files value="First.rou.xml, bg_random.rou.xml"/>
    </input>

</sumoConfiguration>