<?xml version="1.0" encoding="UTF-8"?>

<additional xmlns:xsi="http://www.w3.org/2001/XMLSchema-instance" xsi:noNamespaceSchemaLocation="http://sumo.dlr.de/xsd/additional_file.xsd">
    <!-- StoppingPlaces -->
    <parkingArea id="pa_0" lane="E0_0" startPos="7.02" endPos="17.02">
        <space x="-1540.53" y="-1454.23"/>
        <space x="-1536.27" y="-1454.33"/>
        <space x="-1531.91" y="-1454.28"/>
        <space x="-1527.96" y="-1454.08"/>
        <space x="-1523.55" y="-1454.33"/>
    </parkingArea>
    <parkingArea id="pa_1" lane="E2_0" startPos="5.15" endPos="15.15">
        <space x="-531.05" y="-2040.62" angle="270.00"/>
        <space x="-531.04" y="-2036.54" angle="270.00"/>
        <space x="-531.15" y="-2032.46" angle="270.00"/>
        <space x="-531.10" y="-2028.32" angle="270.00"/>
        <space x="-531.31" y="-2024.24" angle="270.00"/>
    </parkingArea>
    <parkingArea id="pa_2" lane="E18_0" startPos="174.61" endPos="184.61">
        <space x="355.60" y="-1154.74" angle="270.00"/>
        <space x="355.47" y="-1150.63" angle="270.00"/>
        <space x="355.43" y="-1146.26" angle="270.00"/>
        <space x="355.38" y="-1142.07" angle="270.00"/>
        <space x="355.20" y="-1138.02" angle="270.00"/>
    </parkingArea>
</additional>