<?xml version="1.0" encoding="UTF-8"?>

<!-- generated on 2025-10-01 11:50:09 by Eclipse SUMO netedit Version 1.24.0
-->

<routes xmlns:xsi="http://www.w3.org/2001/XMLSchema-instance" xsi:noNamespaceSchemaLocation="http://sumo.dlr.de/xsd/routes_file.xsd">
    <!-- 차량 타입 정의 maxspeed는 m/s임.-->
    <!-- 모든 차선 변경 의도/전략 비활성화 -> 추월 원천 차단-->
    <vType id="truckBASIC" carFollowModel="Krauss"
           accel="1.5" decel="3.0" length="12" maxSpeed="18"
           sigma="0.5" color="grey"/>

    <vType id="truckCACC" carFollowModel="CACC" tau="0.6" minGap="3.0"
           accel="1.5" decel="3.0" length="12" maxSpeed="18" 
           sigma="0.0" color="grey"/>

    <vType id="carCUT" carFollowModel="Krauss"
       accel="2.6" decel="4.5" length="4.5" minGap="1.2" maxSpeed="35"
       sigma="0.5" color="white"
       lcStrategic="1.0" lcCooperative="0.4" lcSpeedGain="1.0"
       lcKeepRight="0.2" lcPushy="1" lcAssertive="1.5" lcImpatience="1.0"/>

    <!-- Routes -->
    <route id="r_0" edges="E0 E3 E15 E18"/>
    <route id="r_1" edges="E0 E3 E14 E17"/>
    <route id="r_2" edges="E2 E3 E15 E18"/>

    <!-- Vehicles: 같은 차선에서 출발하도록 departLane 고정-->
    <vehicle id="Veh0"   type="truckBASIC" route="r_0"
             depart="0.00" departLane="0" color="red">
        <stop parkingArea="pa_0" triggered="true" parking="true" duration="999999"/>     <!-- 출발지 주차장 대기 -->
        <stop parkingArea="pa_2" parking="true"/>
    </vehicle>

    <vehicle id="Veh1" type="truckBASIC" route="r_0"
             depart="0.00" departLane="0" color="orange">
        <stop parkingArea="pa_0" triggered="true" parking="true" duration="999999"/>
        <stop parkingArea="pa_2"  parking="true"/>
    </vehicle>

    <vehicle id="Veh2" type="truckBASIC" route="r_1"
             depart="0.00" departLane="0" color="yellow" > <!--쭉 직진하는 경로-->
        <stop parkingArea="pa_0" triggered="true" parking="true" duration="999999"/>
    </vehicle>
             
    <vehicle id="Veh3" type="truckBASIC" route="r_2"
             depart="0.00" departLane="0" color="green">   
        <!-- 출발: pa_1 (lane="E2_0", endPos=15.15 → 트리거 대기) -->
        <stop parkingArea="pa_1" triggered="true" parking="true" duration="999999"/>
        <!-- 도착: pa_2 -->
        <stop parkingArea="pa_2" parking="true"/>
    </vehicle>

</routes>