<?xml version="1.0" encoding="UTF-8"?>

<!-- generated on 2025-10-29 11:33:10 by Eclipse SUMO netedit Version 1.24.0
<neteditConfiguration xmlns:xsi="http://www.w3.org/2001/XMLSchema-instance" xsi:noNamespaceSchemaLocation="http://sumo.dlr.de/xsd/neteditConfiguration.xsd">

    <input>
        <sumocfg-file value="C:\Users\김진경\test1234\parking\final.sumocfg"/>
        <additional-files value="C:\Users\김진경\test1234\parking\final.add.xml"/>
        <sumo-net-file value="C:\Users\김진경\test1234\parking\final.net.xml"/>
    </input>

    <output>
        <output-file value="C:\Users\김진경\test1234\parking\final.net.xml"/>
    </output>

    <processing>
        <offset.disable-normalization value="true"/>
    </processing>

    <junctions>
        <no-turnarounds value="true"/>
    </junctions>

    <netedit>
        <new-network value="false"/>
    </netedit>

</neteditConfiguration>
-->

<net version="1.20" junctionCornerDetail="5" limitTurnSpeed="5.50" xmlns:xsi="http://www.w3.org/2001/XMLSchema-instance" xsi:noNamespaceSchemaLocation="http://sumo.dlr.de/xsd/net_file.xsd">

    <location netOffset="0.00,0.00" convBoundary="-1543.08,-2042.78,1507.14,-1138.75" origBoundary="10000000000.00,10000000000.00,-10000000000.00,-10000000000.00" projParameter="!"/>

    <edge id=":J1_0" function="internal">
        <lane id=":J1_0_0" index="0" speed="6.49" length="9.03" shape="-544.59,-1440.31 -544.28,-1437.85 -543.26,-1436.09 -541.53,-1435.02 -539.08,-1434.65"/>
        <lane id=":J1_0_1" index="1" speed="7.99" length="14.23" shape="-547.79,-1440.37 -547.31,-1436.50 -545.70,-1433.72 -542.97,-1432.04 -539.11,-1431.45"/>
    </edge>
    <edge id=":J1_2" function="internal">
        <lane id=":J1_2_0" index="0" speed="13.89" length="14.40" shape="-553.48,-1434.79 -539.08,-1434.65"/>
        <lane id=":J1_2_1" index="1" speed="13.89" length="14.40" shape="-553.51,-1431.59 -539.11,-1431.45"/>
    </edge>
    <edge id=":J11_0" function="internal">
        <lane id=":J11_0_0" index="0" speed="13.89" length="4.19" shape="383.26,-1425.80 384.50,-1425.81 385.34,-1425.87 386.19,-1426.01 387.41,-1426.23"/>
    </edge>
    <edge id=":J11_1" function="internal">
        <lane id=":J11_1_0" index="0" speed="13.89" length="4.49" shape="383.22,-1422.60 387.71,-1422.79"/>
    </edge>
    <edge id=":J24_0" function="internal">
        <lane id=":J24_0_0" index="0" speed="13.89" length="8.40" shape="608.46,-1423.29 610.92,-1423.80 612.46,-1424.90 613.99,-1426.01 616.45,-1426.52"/>
        <lane id=":J24_0_1" index="1" speed="13.89" length="8.40" shape="608.46,-1423.29 616.47,-1423.32"/>
    </edge>
    <edge id=":J25_0" function="internal">
        <lane id=":J25_0_0" index="0" speed="13.89" length="8.39" shape="349.45,-1334.30 349.95,-1331.85 351.05,-1330.32 352.16,-1328.79 352.69,-1326.34"/>
        <lane id=":J25_0_1" index="1" speed="13.89" length="8.39" shape="349.45,-1334.30 349.49,-1326.30"/>
    </edge>

    <edge id="E0" from="J0" to="J1" priority="-1">
        <lane id="E0_0" index="0" speed="13.89" length="989.60" shape="-1543.03,-1444.78 -553.48,-1434.79"/>
        <lane id="E0_1" index="1" speed="13.89" length="989.60" shape="-1543.06,-1441.58 -553.51,-1431.59"/>
    </edge>
    <edge id="E14" from="J11" to="J24" priority="-1">
        <lane id="E14_0" index="0" speed="13.89" length="220.75" shape="387.71,-1422.79 608.46,-1423.29"/>
    </edge>
    <edge id="E15" from="J11" to="J25" priority="-1" shape="367.78,-1421.15 445.79,-1434.87 518.55,-1451.79 575.32,-1469.77 646.24,-1501.09 696.16,-1531.53 722.11,-1580.16 722.35,-1642.82 694.90,-1688.04 641.02,-1722.54 566.94,-1745.12 494.47,-1745.44 428.03,-1730.53 387.73,-1690.54 362.29,-1639.80 354.57,-1587.63 348.41,-1522.54 348.13,-1362.92 347.90,-1347.79 347.84,-1330.29">
        <lane id="E15_0" index="0" speed="13.89" length="1194.43" shape="387.41,-1426.23 445.47,-1436.44 518.13,-1453.33 574.75,-1471.27 645.50,-1502.51 694.95,-1532.67 720.51,-1580.56 720.75,-1642.38 693.72,-1686.89 640.34,-1721.07 566.70,-1743.52 494.64,-1743.84 428.83,-1729.07 389.04,-1689.59 363.84,-1639.31 356.16,-1587.44 350.01,-1522.46 349.73,-1362.91 349.50,-1347.78 349.45,-1334.30"/>
    </edge>
    <edge id="E17" from="J24" to="J31" priority="-1">
        <lane id="E17_0" index="0" speed="13.89" length="890.68" shape="616.45,-1426.52 1507.12,-1429.95"/>
        <lane id="E17_1" index="1" speed="13.89" length="890.68" shape="616.47,-1423.32 1507.13,-1426.75"/>
    </edge>
    <edge id="E18" from="J25" to="J32" priority="-1" shape="347.84,-1330.29 348.85,-1241.44 348.14,-1138.75">
        <lane id="E18_0" index="0" speed="13.89" length="187.60" shape="352.69,-1326.34 353.65,-1241.45 352.94,-1138.72"/>
        <lane id="E18_1" index="1" speed="13.89" length="187.60" shape="349.49,-1326.30 350.45,-1241.44 349.74,-1138.74"/>
    </edge>
    <edge id="E2" from="J9" to="J1" priority="-1">
        <lane id="E2_0" index="0" speed="13.89" length="602.48" shape="-533.23,-2042.69 -544.59,-1440.31"/>
        <lane id="E2_1" index="1" speed="13.89" length="602.48" shape="-536.43,-2042.75 -547.79,-1440.37"/>
    </edge>
    <edge id="E3" from="J1" to="J11" priority="-1">
        <lane id="E3_0" index="0" speed="13.89" length="922.38" shape="-539.08,-1434.65 383.26,-1425.80"/>
        <lane id="E3_1" index="1" speed="13.89" length="922.38" shape="-539.11,-1431.45 383.22,-1422.60"/>
    </edge>

    <junction id="J0" type="dead_end" x="-1543.08" y="-1439.98" incLanes="" intLanes="" shape="-1543.08,-1439.98 -1543.01,-1446.38"/>
    <junction id="J1" type="priority" x="-549.58" y="-1429.95" incLanes="E2_0 E2_1 E0_0 E0_1" intLanes=":J1_0_0 :J1_0_1 :J1_2_0 :J1_2_1" shape="-539.12,-1429.85 -539.06,-1436.25 -541.28,-1436.71 -542.04,-1437.27 -542.58,-1438.06 -542.90,-1439.06 -542.99,-1440.28 -549.39,-1440.40 -549.87,-1438.15 -550.44,-1437.37 -551.23,-1436.81 -552.24,-1436.49 -553.46,-1436.39 -553.53,-1429.99">
        <request index="0" response="0000" foes="1100" cont="0"/>
        <request index="1" response="0000" foes="1100" cont="0"/>
        <request index="2" response="0011" foes="0011" cont="0"/>
        <request index="3" response="0011" foes="0011" cont="0"/>
    </junction>
    <junction id="J11" type="priority" x="367.78" y="-1421.15" incLanes="E3_0 E3_1" intLanes=":J11_0_0 :J11_1_0" shape="387.72,-1421.19 387.71,-1424.39 387.69,-1424.65 387.13,-1427.80 385.71,-1427.55 385.21,-1427.47 384.71,-1427.42 384.10,-1427.40 383.27,-1427.40 383.21,-1421.00">
        <request index="0" response="00" foes="00" cont="0"/>
        <request index="1" response="00" foes="00" cont="0"/>
    </junction>
    <junction id="J24" type="priority" x="612.47" y="-1421.70" incLanes="E14_0" intLanes=":J24_0_0 :J24_0_1" shape="616.47,-1421.72 616.45,-1428.12 613.42,-1427.27 611.49,-1425.73 610.25,-1425.13 608.46,-1424.89 608.47,-1421.69">
        <request index="0" response="00" foes="00" cont="0"/>
        <request index="1" response="00" foes="00" cont="0"/>
    </junction>
    <junction id="J25" type="priority" x="347.84" y="-1330.29" incLanes="E15_0" intLanes=":J25_0_0 :J25_0_1" shape="347.89,-1326.28 354.29,-1326.36 353.42,-1329.37 352.65,-1330.33 351.87,-1331.29 351.28,-1332.52 351.05,-1334.30 347.85,-1334.31">
        <request index="0" response="00" foes="00" cont="0"/>
        <request index="1" response="00" foes="00" cont="0"/>
    </junction>
    <junction id="J31" type="dead_end" x="1507.14" y="-1425.15" incLanes="E17_0 E17_1" intLanes="" shape="1507.12,-1431.55 1507.14,-1425.15"/>
    <junction id="J32" type="dead_end" x="348.14" y="-1138.75" incLanes="E18_0 E18_1" intLanes="" shape="354.54,-1138.71 348.14,-1138.75"/>
    <junction id="J9" type="dead_end" x="-538.03" y="-2042.78" incLanes="" intLanes="" shape="-538.03,-2042.78 -531.63,-2042.66"/>

    <connection from="E0" to="E3" fromLane="0" toLane="0" via=":J1_2_0" dir="s" state="m"/>
    <connection from="E0" to="E3" fromLane="1" toLane="1" via=":J1_2_1" dir="s" state="m"/>
    <connection from="E14" to="E17" fromLane="0" toLane="0" via=":J24_0_0" dir="s" state="M"/>
    <connection from="E14" to="E17" fromLane="0" toLane="1" via=":J24_0_1" dir="s" state="M"/>
    <connection from="E15" to="E18" fromLane="0" toLane="0" via=":J25_0_0" dir="s" state="M"/>
    <connection from="E15" to="E18" fromLane="0" toLane="1" via=":J25_0_1" dir="s" state="M"/>
    <connection from="E2" to="E3" fromLane="0" toLane="0" via=":J1_0_0" dir="r" state="M"/>
    <connection from="E2" to="E3" fromLane="1" toLane="1" via=":J1_0_1" dir="r" state="M"/>
    <connection from="E3" to="E15" fromLane="0" toLane="0" via=":J11_0_0" dir="R" state="M"/>
    <connection from="E3" to="E14" fromLane="1" toLane="0" via=":J11_1_0" dir="s" state="M"/>

    <connection from=":J1_0" to="E3" fromLane="0" toLane="0" dir="r" state="M"/>
    <connection from=":J1_0" to="E3" fromLane="1" toLane="1" dir="r" state="M"/>
    <connection from=":J1_2" to="E3" fromLane="0" toLane="0" dir="s" state="M"/>
    <connection from=":J1_2" to="E3" fromLane="1" toLane="1" dir="s" state="M"/>
    <connection from=":J11_0" to="E15" fromLane="0" toLane="0" dir="R" state="M"/>
    <connection from=":J11_1" to="E14" fromLane="0" toLane="0" dir="s" state="M"/>
    <connection from=":J24_0" to="E17" fromLane="0" toLane="0" dir="s" state="M"/>
    <connection from=":J24_0" to="E17" fromLane="1" toLane="1" dir="s" state="M"/>
    <connection from=":J25_0" to="E18" fromLane="0" toLane="0" dir="s" state="M"/>
    <connection from=":J25_0" to="E18" fromLane="1" toLane="1" dir="s" state="M"/>

</net>
