<?xml version="1.0" encoding="UTF-8"?>

<!-- generated on 2025-10-01 12:01:13 by Eclipse SUMO sumo Version 1.24.0
-->

<sumoConfiguration xmlns:xsi="http://www.w3.org/2001/XMLSchema-instance" xsi:noNamespaceSchemaLocation="http://sumo.dlr.de/xsd/sumoConfiguration.xsd">

    <input>
        <net-file value="First.net.xml"/>
        <route-files value="First.rou.xml"/>
    </input>

</sumoConfiguration>
