<?xml version="1.0" encoding="UTF-8"?>

<!-- generated on 2025-10-01 11:46:14 by Eclipse SUMO netedit Version 1.24.0
<neteditConfiguration xmlns:xsi="http://www.w3.org/2001/XMLSchema-instance" xsi:noNamespaceSchemaLocation="http://sumo.dlr.de/xsd/neteditConfiguration.xsd">

    <input>
        <sumocfg-file value="C:\Users\26144\test1234\First\First.sumocfg"/>
        <sumo-net-file value="C:\Users\26144\test1234\First\First.net.xml"/>
    </input>

    <output>
        <output-file value="C:\Users\26144\test1234\First\First.net.xml"/>
    </output>

    <processing>
        <offset.disable-normalization value="true"/>
    </processing>

    <junctions>
        <no-turnarounds value="true"/>
    </junctions>

    <netedit>
        <new-network value="false"/>
    </netedit>

</neteditConfiguration>
-->

<net version="1.20" junctionCornerDetail="5" limitTurnSpeed="5.50" xmlns:xsi="http://www.w3.org/2001/XMLSchema-instance" xsi:noNamespaceSchemaLocation="http://sumo.dlr.de/xsd/net_file.xsd">

    <location netOffset="0.00,0.00" convBoundary="-80.88,4.63,82.17,4.70" origBoundary="10000000000.00,10000000000.00,-10000000000.00,-10000000000.00" projParameter="!"/>

    <edge id="E0" from="J0" to="J1" priority="-1">
        <lane id="E0_0" index="0" speed="13.89" length="163.05" shape="-80.88,3.03 82.17,3.10"/>
    </edge>

    <junction id="J0" type="dead_end" x="-80.88" y="4.63" incLanes="" intLanes="" shape="-80.88,4.63 -80.88,1.43"/>
    <junction id="J1" type="dead_end" x="82.17" y="4.70" incLanes="E0_0" intLanes="" shape="82.17,1.50 82.17,4.70"/>

</net>
